1012
Converted to XYZ format (including framework carbon atoms, lone pairs ignored)
H 15.361562985605 17.101937057847 30.564701799981
H 14.200009971824 17.947117653121 31.042571603318
O 14.584477152865 17.472824884709 30.417912885747
H 14.030074515426 16.569857751730 19.044426626429
H 14.279567997226 17.768763192891 19.934524338529
O 14.339232114383 17.379283489469 19.154964904844
H 16.370371713161 16.503112363495 5.307421002543
H 17.588851636595 16.061479928273 6.089829246199
O 17.175279024376 16.164449047193 5.327384355159
H 14.177706928066 17.528093887475 33.824773086308
H 15.423222268747 16.726312676863 33.512149322286
O 14.640897920176 17.033176809659 33.273884397173
H 15.122856198678 17.341054052921 24.785467578369
H 14.150727257954 17.487918628969 25.936680551846
O 14.305954145734 17.440088442350 25.078435806182
H 15.393681875625 16.934240868690 27.655389316663
H 14.227480308126 17.547047995117 28.401269012832
O 14.550410847204 17.159605855729 27.688126942512
H 14.519855281488 14.474894681389 19.336388851719
H 13.211536052418 14.447972742290 18.575158797507
O 13.673187626272 14.681799041432 19.278842137576
H 13.940598790060 17.055504363666 11.668311558418
H 13.542245079980 16.143396018962 10.527580266404
O 13.914442319864 16.880266098936 10.812990246545
H 16.704904103648 13.148824535167 31.094682979144
H 15.671858754053 13.782131405193 30.187139643842
O 16.484031142956 13.490119368175 30.321572295542
H 16.277076872969 13.416727437570 23.078361264888
H 16.798179731318 14.524605475574 22.187882036987
O 16.321705282309 13.800394583704 22.294923339485
H 15.210670655382 17.015779313217 7.972799836739
H 14.149950075749 17.711795076794 8.798831979085
O 14.440223220555 17.423751492354 8.026990316715
H 13.490623428606 14.801175283598 23.800931652506
H 13.817647820552 15.847618807943 24.844917375025
O 13.613950214467 15.024213690598 24.636402495681
H 16.217840148907 13.679799187597 20.343529711009
H 16.725388143309 14.631339130543 19.281050552744
O 16.231763132789 13.948950058683 19.512668040203
H 16.926909955010 14.507232681152 10.935575681218
H 17.110313564370 13.022166073686 11.165435375064
O 16.810421583888 13.681143134215 10.676782951923
H 13.403759791006 14.113611827186 21.181198393083
H 14.597359178809 14.129125956478 22.112313318655
O 13.742600457384 14.245740959341 21.975362136997
H 17.202000979434 17.160979246222 9.162707044336
H 17.316337375595 15.741098030443 8.650106114778
O 17.201229567285 16.593600785516 8.498592412550
H 13.201534950660 14.183351393065 13.067330775716
H 14.330990023388 13.681146377475 13.941411179568
O 13.626839962979 14.185911160544 13.830269994127
H 15.620660436558 14.130551983149 16.576712824502
H 16.312776064196 12.819611891017 16.883807637573
O 16.288314627716 13.580523774258 16.455576507257
H 14.340182064752 15.738904855209 13.471666578104
H 14.464375815469 16.992160249023 14.311798723394
O 14.483537106334 16.598401860896 13.532341005738
H 14.118496342494 16.450744692785 5.089877191954
H 14.405375905093 17.442669794331 6.196981478315
O 14.493560773551 17.189865132118 5.365548745834
H 17.645071260726 16.631752731191 17.396007547938
H 17.501053438751 15.499668225296 16.401251934805
O 17.549173734102 16.354703884647 16.573198482651
H 13.898945062325 16.419795767325 22.123805429294
H 14.252333030620 17.632348629215 22.958507587180
O 14.237082517358 17.222671874361 22.187210280508
H 13.592209419353 15.099802077460 27.506359531068
H 13.346780136131 13.754148257193 26.857610385148
O 13.586102424669 14.227515672699 27.551595463553
H 13.128690556397 14.312884302882 32.197592807097
H 13.828170798817 15.408825837362 32.973179510734
O 13.477562240445 14.609429985232 32.941445187110
H 15.819217966991 13.010878930080 36.686424006392
H 16.795283822635 13.835034179744 35.874045546996
O 16.035567845123 13.409014477932 35.939665696983
H 16.104942041616 16.694481809501 10.917483565215
H 17.103344932049 16.457167187395 12.030483398954
O 16.913823728662 16.493212453747 11.178574008736
H 15.414898490395 14.181483339158 24.888735609438
H 16.485689152966 13.890352894231 25.918563562244
O 16.230678838967 13.938295471328 25.084514159655
H 13.347574283963 14.554145491378 34.832637318952
H 14.606871427094 14.406133009975 35.659775881736
O 13.803434213290 14.732762111481 35.556000979056
H 17.462104021065 15.773566150375 34.254240642569
H 16.954496009092 14.776791675848 33.234108325414
O 17.246876942933 15.575968892334 33.431076147857
H 16.823894142799 15.382419439004 30.410413438087
H 17.272055345816 16.396051121093 31.441722092452
O 17.023122725946 16.204947951437 30.626566103567
H 17.421339960165 16.730486633602 19.944099511532
H 16.241309456334 17.120860671325 19.079789779958
O 17.038809461195 16.773696492020 19.160026503199
H 16.063765524511 16.763234544293 21.832035810443
H 17.299063347986 16.717046476766 22.705992983952
O 16.904917270214 16.555779033799 21.943360150855
H 16.248694466323 13.265135185436 8.628969836772
H 15.356976297143 13.942415368100 7.610134495651
O 16.026609867895 13.413735821130 7.797366903206
H 17.180028245271 16.666850618931 28.509871731300
H 16.862697069054 15.677073294545 27.409173332952
O 17.084176543597 16.483532119524 27.661241107316
H 14.324735447195 13.559514906516 10.858079587367
H 13.403600817758 13.854203861531 9.693363052909
O 13.740544006028 14.078269519762 10.467463192156
H 16.656902992868 14.383630952069 13.370267740226
H 16.640883413276 13.427744743728 14.544116163647
O 16.494911278670 13.590518618557 13.698442492250
H 13.537870144217 15.498166343439 7.761499980205
H 13.040957855042 14.454816363224 6.783545897926
O 13.389122486382 14.661997890541 7.557383323439
H 13.503703043524 14.118354327019 15.834720993177
H 13.723786815741 15.265712958237 16.797543144962
O 13.576899600184 14.417012985044 16.652285930648
H 14.136363421070 15.818344680200 30.389116409228
H 13.695340503537 14.633815403189 29.555879126394
O 13.878294029730 14.985671196958 30.334141719961
H 16.561981531782 13.746502407649 28.476556197022
H 15.409720871338 13.727930141538 27.494799795098
O 16.225899663348 13.962112324244 27.699685230595
H 14.703370328907 17.311651571756 17.113468114153
H 15.810012068558 16.555359616640 16.409719771291
O 14.973324738090 16.801547932748 16.457811152522
H 16.355304928568 16.479222922917 13.842058991395
H 17.715229903564 16.623321521569 14.491470145935
O 17.196852599673 16.251262135118 13.894960346630
H 17.619254269866 16.764559249698 25.335926061535
H 16.853763438561 15.609789491614 24.725659083569
O 17.070204870190 16.456013433190 24.730689419607
H 15.045038593857 13.712246554622 32.897046756532
H 15.773830435492 12.746712241348 33.807267132512
O 15.750407546008 13.230873213478 33.080626452247
C 15.400000 20.792169 0.770000
C 16.919150 20.573749 0.770000
C 18.315227 19.936182 0.770000
C 19.475130 18.931120 0.770000
C 20.304890 17.639988 0.770000
C 20.737285 16.167386 0.770000
C 20.737285 14.632614 0.770000
C 20.304890 13.160012 0.770000
C 19.475130 11.868880 0.770000
C 18.315227 10.863818 0.770000
C 16.919150 10.226251 0.770000
C 15.400000 10.007831 0.770000
C 13.880850 10.226251 0.770000
C 12.484773 10.863818 0.770000
C 11.324870 11.868880 0.770000
C 10.495110 13.160012 0.770000
C 10.062715 14.632614 0.770000
C 10.062715 16.167386 0.770000
C 10.495110 17.639988 0.770000
C 11.324870 18.931120 0.770000
C 12.484773 19.936182 0.770000
C 13.880850 20.573749 0.770000
C 15.400000 22.332169 0.770000
C 17.353018 22.051368 0.770000
C 19.147814 21.231712 0.770000
C 20.638984 19.939606 0.770000
C 21.705723 18.279727 0.770000
C 22.261610 16.386551 0.770000
C 22.261610 14.413449 0.770000
C 21.705723 12.520273 0.770000
C 20.638984 10.860394 0.770000
C 19.147814 9.568288 0.770000
C 17.353018 8.748632 0.770000
C 15.400000 8.467831 0.770000
C 13.446982 8.748632 0.770000
C 11.652186 9.568288 0.770000
C 10.161016 10.860394 0.770000
C 9.094277 12.520273 0.770000
C 8.538390 14.413449 0.770000
C 8.538390 16.386551 0.770000
C 9.094277 18.279727 0.770000
C 10.161016 19.939606 0.770000
C 11.652186 21.231712 0.770000
C 13.446982 22.051368 0.770000
C 15.400000 20.792169 2.310000
C 16.919150 20.573749 2.310000
C 18.315227 19.936182 2.310000
C 19.475130 18.931120 2.310000
C 20.304890 17.639988 2.310000
C 20.737285 16.167386 2.310000
C 20.737285 14.632614 2.310000
C 20.304890 13.160012 2.310000
C 19.475130 11.868880 2.310000
C 18.315227 10.863818 2.310000
C 16.919150 10.226251 2.310000
C 15.400000 10.007831 2.310000
C 13.880850 10.226251 2.310000
C 12.484773 10.863818 2.310000
C 11.324870 11.868880 2.310000
C 10.495110 13.160012 2.310000
C 10.062715 14.632614 2.310000
C 10.062715 16.167386 2.310000
C 10.495110 17.639988 2.310000
C 11.324870 18.931120 2.310000
C 12.484773 19.936182 2.310000
C 13.880850 20.573749 2.310000
C 15.400000 22.332169 2.310000
C 17.353018 22.051368 2.310000
C 19.147814 21.231712 2.310000
C 20.638984 19.939606 2.310000
C 21.705723 18.279727 2.310000
C 22.261610 16.386551 2.310000
C 22.261610 14.413449 2.310000
C 21.705723 12.520273 2.310000
C 20.638984 10.860394 2.310000
C 19.147814 9.568288 2.310000
C 17.353018 8.748632 2.310000
C 15.400000 8.467831 2.310000
C 13.446982 8.748632 2.310000
C 11.652186 9.568288 2.310000
C 10.161016 10.860394 2.310000
C 9.094277 12.520273 2.310000
C 8.538390 14.413449 2.310000
C 8.538390 16.386551 2.310000
C 9.094277 18.279727 2.310000
C 10.161016 19.939606 2.310000
C 11.652186 21.231712 2.310000
C 13.446982 22.051368 2.310000
C 15.400000 20.792169 3.850000
C 16.919150 20.573749 3.850000
C 18.315227 19.936182 3.850000
C 19.475130 18.931120 3.850000
C 20.304890 17.639988 3.850000
C 20.737285 16.167386 3.850000
C 20.737285 14.632614 3.850000
C 20.304890 13.160012 3.850000
C 19.475130 11.868880 3.850000
C 18.315227 10.863818 3.850000
C 16.919150 10.226251 3.850000
C 15.400000 10.007831 3.850000
C 13.880850 10.226251 3.850000
C 12.484773 10.863818 3.850000
C 11.324870 11.868880 3.850000
C 10.495110 13.160012 3.850000
C 10.062715 14.632614 3.850000
C 10.062715 16.167386 3.850000
C 10.495110 17.639988 3.850000
C 11.324870 18.931120 3.850000
C 12.484773 19.936182 3.850000
C 13.880850 20.573749 3.850000
C 15.400000 22.332169 3.850000
C 17.353018 22.051368 3.850000
C 19.147814 21.231712 3.850000
C 20.638984 19.939606 3.850000
C 21.705723 18.279727 3.850000
C 22.261610 16.386551 3.850000
C 22.261610 14.413449 3.850000
C 21.705723 12.520273 3.850000
C 20.638984 10.860394 3.850000
C 19.147814 9.568288 3.850000
C 17.353018 8.748632 3.850000
C 15.400000 8.467831 3.850000
C 13.446982 8.748632 3.850000
C 11.652186 9.568288 3.850000
C 10.161016 10.860394 3.850000
C 9.094277 12.520273 3.850000
C 8.538390 14.413449 3.850000
C 8.538390 16.386551 3.850000
C 9.094277 18.279727 3.850000
C 10.161016 19.939606 3.850000
C 11.652186 21.231712 3.850000
C 13.446982 22.051368 3.850000
C 15.400000 20.792169 5.390000
C 16.919150 20.573749 5.390000
C 18.315227 19.936182 5.390000
C 19.475130 18.931120 5.390000
C 20.304890 17.639988 5.390000
C 20.737285 16.167386 5.390000
C 20.737285 14.632614 5.390000
C 20.304890 13.160012 5.390000
C 19.475130 11.868880 5.390000
C 18.315227 10.863818 5.390000
C 16.919150 10.226251 5.390000
C 15.400000 10.007831 5.390000
C 13.880850 10.226251 5.390000
C 12.484773 10.863818 5.390000
C 11.324870 11.868880 5.390000
C 10.495110 13.160012 5.390000
C 10.062715 14.632614 5.390000
C 10.062715 16.167386 5.390000
C 10.495110 17.639988 5.390000
C 11.324870 18.931120 5.390000
C 12.484773 19.936182 5.390000
C 13.880850 20.573749 5.390000
C 15.400000 22.332169 5.390000
C 17.353018 22.051368 5.390000
C 19.147814 21.231712 5.390000
C 20.638984 19.939606 5.390000
C 21.705723 18.279727 5.390000
C 22.261610 16.386551 5.390000
C 22.261610 14.413449 5.390000
C 21.705723 12.520273 5.390000
C 20.638984 10.860394 5.390000
C 19.147814 9.568288 5.390000
C 17.353018 8.748632 5.390000
C 15.400000 8.467831 5.390000
C 13.446982 8.748632 5.390000
C 11.652186 9.568288 5.390000
C 10.161016 10.860394 5.390000
C 9.094277 12.520273 5.390000
C 8.538390 14.413449 5.390000
C 8.538390 16.386551 5.390000
C 9.094277 18.279727 5.390000
C 10.161016 19.939606 5.390000
C 11.652186 21.231712 5.390000
C 13.446982 22.051368 5.390000
C 15.400000 20.792169 6.930000
C 16.919150 20.573749 6.930000
C 18.315227 19.936182 6.930000
C 19.475130 18.931120 6.930000
C 20.304890 17.639988 6.930000
C 20.737285 16.167386 6.930000
C 20.737285 14.632614 6.930000
C 20.304890 13.160012 6.930000
C 19.475130 11.868880 6.930000
C 18.315227 10.863818 6.930000
C 16.919150 10.226251 6.930000
C 15.400000 10.007831 6.930000
C 13.880850 10.226251 6.930000
C 12.484773 10.863818 6.930000
C 11.324870 11.868880 6.930000
C 10.495110 13.160012 6.930000
C 10.062715 14.632614 6.930000
C 10.062715 16.167386 6.930000
C 10.495110 17.639988 6.930000
C 11.324870 18.931120 6.930000
C 12.484773 19.936182 6.930000
C 13.880850 20.573749 6.930000
C 15.400000 22.332169 6.930000
C 17.353018 22.051368 6.930000
C 19.147814 21.231712 6.930000
C 20.638984 19.939606 6.930000
C 21.705723 18.279727 6.930000
C 22.261610 16.386551 6.930000
C 22.261610 14.413449 6.930000
C 21.705723 12.520273 6.930000
C 20.638984 10.860394 6.930000
C 19.147814 9.568288 6.930000
C 17.353018 8.748632 6.930000
C 15.400000 8.467831 6.930000
C 13.446982 8.748632 6.930000
C 11.652186 9.568288 6.930000
C 10.161016 10.860394 6.930000
C 9.094277 12.520273 6.930000
C 8.538390 14.413449 6.930000
C 8.538390 16.386551 6.930000
C 9.094277 18.279727 6.930000
C 10.161016 19.939606 6.930000
C 11.652186 21.231712 6.930000
C 13.446982 22.051368 6.930000
C 15.400000 20.792169 8.470000
C 16.919150 20.573749 8.470000
C 18.315227 19.936182 8.470000
C 19.475130 18.931120 8.470000
C 20.304890 17.639988 8.470000
C 20.737285 16.167386 8.470000
C 20.737285 14.632614 8.470000
C 20.304890 13.160012 8.470000
C 19.475130 11.868880 8.470000
C 18.315227 10.863818 8.470000
C 16.919150 10.226251 8.470000
C 15.400000 10.007831 8.470000
C 13.880850 10.226251 8.470000
C 12.484773 10.863818 8.470000
C 11.324870 11.868880 8.470000
C 10.495110 13.160012 8.470000
C 10.062715 14.632614 8.470000
C 10.062715 16.167386 8.470000
C 10.495110 17.639988 8.470000
C 11.324870 18.931120 8.470000
C 12.484773 19.936182 8.470000
C 13.880850 20.573749 8.470000
C 15.400000 22.332169 8.470000
C 17.353018 22.051368 8.470000
C 19.147814 21.231712 8.470000
C 20.638984 19.939606 8.470000
C 21.705723 18.279727 8.470000
C 22.261610 16.386551 8.470000
C 22.261610 14.413449 8.470000
C 21.705723 12.520273 8.470000
C 20.638984 10.860394 8.470000
C 19.147814 9.568288 8.470000
C 17.353018 8.748632 8.470000
C 15.400000 8.467831 8.470000
C 13.446982 8.748632 8.470000
C 11.652186 9.568288 8.470000
C 10.161016 10.860394 8.470000
C 9.094277 12.520273 8.470000
C 8.538390 14.413449 8.470000
C 8.538390 16.386551 8.470000
C 9.094277 18.279727 8.470000
C 10.161016 19.939606 8.470000
C 11.652186 21.231712 8.470000
C 13.446982 22.051368 8.470000
C 15.400000 20.792169 10.010000
C 16.919150 20.573749 10.010000
C 18.315227 19.936182 10.010000
C 19.475130 18.931120 10.010000
C 20.304890 17.639988 10.010000
C 20.737285 16.167386 10.010000
C 20.737285 14.632614 10.010000
C 20.304890 13.160012 10.010000
C 19.475130 11.868880 10.010000
C 18.315227 10.863818 10.010000
C 16.919150 10.226251 10.010000
C 15.400000 10.007831 10.010000
C 13.880850 10.226251 10.010000
C 12.484773 10.863818 10.010000
C 11.324870 11.868880 10.010000
C 10.495110 13.160012 10.010000
C 10.062715 14.632614 10.010000
C 10.062715 16.167386 10.010000
C 10.495110 17.639988 10.010000
C 11.324870 18.931120 10.010000
C 12.484773 19.936182 10.010000
C 13.880850 20.573749 10.010000
C 15.400000 22.332169 10.010000
C 17.353018 22.051368 10.010000
C 19.147814 21.231712 10.010000
C 20.638984 19.939606 10.010000
C 21.705723 18.279727 10.010000
C 22.261610 16.386551 10.010000
C 22.261610 14.413449 10.010000
C 21.705723 12.520273 10.010000
C 20.638984 10.860394 10.010000
C 19.147814 9.568288 10.010000
C 17.353018 8.748632 10.010000
C 15.400000 8.467831 10.010000
C 13.446982 8.748632 10.010000
C 11.652186 9.568288 10.010000
C 10.161016 10.860394 10.010000
C 9.094277 12.520273 10.010000
C 8.538390 14.413449 10.010000
C 8.538390 16.386551 10.010000
C 9.094277 18.279727 10.010000
C 10.161016 19.939606 10.010000
C 11.652186 21.231712 10.010000
C 13.446982 22.051368 10.010000
C 15.400000 20.792169 11.550000
C 16.919150 20.573749 11.550000
C 18.315227 19.936182 11.550000
C 19.475130 18.931120 11.550000
C 20.304890 17.639988 11.550000
C 20.737285 16.167386 11.550000
C 20.737285 14.632614 11.550000
C 20.304890 13.160012 11.550000
C 19.475130 11.868880 11.550000
C 18.315227 10.863818 11.550000
C 16.919150 10.226251 11.550000
C 15.400000 10.007831 11.550000
C 13.880850 10.226251 11.550000
C 12.484773 10.863818 11.550000
C 11.324870 11.868880 11.550000
C 10.495110 13.160012 11.550000
C 10.062715 14.632614 11.550000
C 10.062715 16.167386 11.550000
C 10.495110 17.639988 11.550000
C 11.324870 18.931120 11.550000
C 12.484773 19.936182 11.550000
C 13.880850 20.573749 11.550000
C 15.400000 22.332169 11.550000
C 17.353018 22.051368 11.550000
C 19.147814 21.231712 11.550000
C 20.638984 19.939606 11.550000
C 21.705723 18.279727 11.550000
C 22.261610 16.386551 11.550000
C 22.261610 14.413449 11.550000
C 21.705723 12.520273 11.550000
C 20.638984 10.860394 11.550000
C 19.147814 9.568288 11.550000
C 17.353018 8.748632 11.550000
C 15.400000 8.467831 11.550000
C 13.446982 8.748632 11.550000
C 11.652186 9.568288 11.550000
C 10.161016 10.860394 11.550000
C 9.094277 12.520273 11.550000
C 8.538390 14.413449 11.550000
C 8.538390 16.386551 11.550000
C 9.094277 18.279727 11.550000
C 10.161016 19.939606 11.550000
C 11.652186 21.231712 11.550000
C 13.446982 22.051368 11.550000
C 15.400000 20.792169 13.090000
C 16.919150 20.573749 13.090000
C 18.315227 19.936182 13.090000
C 19.475130 18.931120 13.090000
C 20.304890 17.639988 13.090000
C 20.737285 16.167386 13.090000
C 20.737285 14.632614 13.090000
C 20.304890 13.160012 13.090000
C 19.475130 11.868880 13.090000
C 18.315227 10.863818 13.090000
C 16.919150 10.226251 13.090000
C 15.400000 10.007831 13.090000
C 13.880850 10.226251 13.090000
C 12.484773 10.863818 13.090000
C 11.324870 11.868880 13.090000
C 10.495110 13.160012 13.090000
C 10.062715 14.632614 13.090000
C 10.062715 16.167386 13.090000
C 10.495110 17.639988 13.090000
C 11.324870 18.931120 13.090000
C 12.484773 19.936182 13.090000
C 13.880850 20.573749 13.090000
C 15.400000 22.332169 13.090000
C 17.353018 22.051368 13.090000
C 19.147814 21.231712 13.090000
C 20.638984 19.939606 13.090000
C 21.705723 18.279727 13.090000
C 22.261610 16.386551 13.090000
C 22.261610 14.413449 13.090000
C 21.705723 12.520273 13.090000
C 20.638984 10.860394 13.090000
C 19.147814 9.568288 13.090000
C 17.353018 8.748632 13.090000
C 15.400000 8.467831 13.090000
C 13.446982 8.748632 13.090000
C 11.652186 9.568288 13.090000
C 10.161016 10.860394 13.090000
C 9.094277 12.520273 13.090000
C 8.538390 14.413449 13.090000
C 8.538390 16.386551 13.090000
C 9.094277 18.279727 13.090000
C 10.161016 19.939606 13.090000
C 11.652186 21.231712 13.090000
C 13.446982 22.051368 13.090000
C 15.400000 20.792169 14.630000
C 16.919150 20.573749 14.630000
C 18.315227 19.936182 14.630000
C 19.475130 18.931120 14.630000
C 20.304890 17.639988 14.630000
C 20.737285 16.167386 14.630000
C 20.737285 14.632614 14.630000
C 20.304890 13.160012 14.630000
C 19.475130 11.868880 14.630000
C 18.315227 10.863818 14.630000
C 16.919150 10.226251 14.630000
C 15.400000 10.007831 14.630000
C 13.880850 10.226251 14.630000
C 12.484773 10.863818 14.630000
C 11.324870 11.868880 14.630000
C 10.495110 13.160012 14.630000
C 10.062715 14.632614 14.630000
C 10.062715 16.167386 14.630000
C 10.495110 17.639988 14.630000
C 11.324870 18.931120 14.630000
C 12.484773 19.936182 14.630000
C 13.880850 20.573749 14.630000
C 15.400000 22.332169 14.630000
C 17.353018 22.051368 14.630000
C 19.147814 21.231712 14.630000
C 20.638984 19.939606 14.630000
C 21.705723 18.279727 14.630000
C 22.261610 16.386551 14.630000
C 22.261610 14.413449 14.630000
C 21.705723 12.520273 14.630000
C 20.638984 10.860394 14.630000
C 19.147814 9.568288 14.630000
C 17.353018 8.748632 14.630000
C 15.400000 8.467831 14.630000
C 13.446982 8.748632 14.630000
C 11.652186 9.568288 14.630000
C 10.161016 10.860394 14.630000
C 9.094277 12.520273 14.630000
C 8.538390 14.413449 14.630000
C 8.538390 16.386551 14.630000
C 9.094277 18.279727 14.630000
C 10.161016 19.939606 14.630000
C 11.652186 21.231712 14.630000
C 13.446982 22.051368 14.630000
C 15.400000 20.792169 16.170000
C 16.919150 20.573749 16.170000
C 18.315227 19.936182 16.170000
C 19.475130 18.931120 16.170000
C 20.304890 17.639988 16.170000
C 20.737285 16.167386 16.170000
C 20.737285 14.632614 16.170000
C 20.304890 13.160012 16.170000
C 19.475130 11.868880 16.170000
C 18.315227 10.863818 16.170000
C 16.919150 10.226251 16.170000
C 15.400000 10.007831 16.170000
C 13.880850 10.226251 16.170000
C 12.484773 10.863818 16.170000
C 11.324870 11.868880 16.170000
C 10.495110 13.160012 16.170000
C 10.062715 14.632614 16.170000
C 10.062715 16.167386 16.170000
C 10.495110 17.639988 16.170000
C 11.324870 18.931120 16.170000
C 12.484773 19.936182 16.170000
C 13.880850 20.573749 16.170000
C 15.400000 22.332169 16.170000
C 17.353018 22.051368 16.170000
C 19.147814 21.231712 16.170000
C 20.638984 19.939606 16.170000
C 21.705723 18.279727 16.170000
C 22.261610 16.386551 16.170000
C 22.261610 14.413449 16.170000
C 21.705723 12.520273 16.170000
C 20.638984 10.860394 16.170000
C 19.147814 9.568288 16.170000
C 17.353018 8.748632 16.170000
C 15.400000 8.467831 16.170000
C 13.446982 8.748632 16.170000
C 11.652186 9.568288 16.170000
C 10.161016 10.860394 16.170000
C 9.094277 12.520273 16.170000
C 8.538390 14.413449 16.170000
C 8.538390 16.386551 16.170000
C 9.094277 18.279727 16.170000
C 10.161016 19.939606 16.170000
C 11.652186 21.231712 16.170000
C 13.446982 22.051368 16.170000
C 15.400000 20.792169 17.710000
C 16.919150 20.573749 17.710000
C 18.315227 19.936182 17.710000
C 19.475130 18.931120 17.710000
C 20.304890 17.639988 17.710000
C 20.737285 16.167386 17.710000
C 20.737285 14.632614 17.710000
C 20.304890 13.160012 17.710000
C 19.475130 11.868880 17.710000
C 18.315227 10.863818 17.710000
C 16.919150 10.226251 17.710000
C 15.400000 10.007831 17.710000
C 13.880850 10.226251 17.710000
C 12.484773 10.863818 17.710000
C 11.324870 11.868880 17.710000
C 10.495110 13.160012 17.710000
C 10.062715 14.632614 17.710000
C 10.062715 16.167386 17.710000
C 10.495110 17.639988 17.710000
C 11.324870 18.931120 17.710000
C 12.484773 19.936182 17.710000
C 13.880850 20.573749 17.710000
C 15.400000 22.332169 17.710000
C 17.353018 22.051368 17.710000
C 19.147814 21.231712 17.710000
C 20.638984 19.939606 17.710000
C 21.705723 18.279727 17.710000
C 22.261610 16.386551 17.710000
C 22.261610 14.413449 17.710000
C 21.705723 12.520273 17.710000
C 20.638984 10.860394 17.710000
C 19.147814 9.568288 17.710000
C 17.353018 8.748632 17.710000
C 15.400000 8.467831 17.710000
C 13.446982 8.748632 17.710000
C 11.652186 9.568288 17.710000
C 10.161016 10.860394 17.710000
C 9.094277 12.520273 17.710000
C 8.538390 14.413449 17.710000
C 8.538390 16.386551 17.710000
C 9.094277 18.279727 17.710000
C 10.161016 19.939606 17.710000
C 11.652186 21.231712 17.710000
C 13.446982 22.051368 17.710000
C 15.400000 20.792169 19.250000
C 16.919150 20.573749 19.250000
C 18.315227 19.936182 19.250000
C 19.475130 18.931120 19.250000
C 20.304890 17.639988 19.250000
C 20.737285 16.167386 19.250000
C 20.737285 14.632614 19.250000
C 20.304890 13.160012 19.250000
C 19.475130 11.868880 19.250000
C 18.315227 10.863818 19.250000
C 16.919150 10.226251 19.250000
C 15.400000 10.007831 19.250000
C 13.880850 10.226251 19.250000
C 12.484773 10.863818 19.250000
C 11.324870 11.868880 19.250000
C 10.495110 13.160012 19.250000
C 10.062715 14.632614 19.250000
C 10.062715 16.167386 19.250000
C 10.495110 17.639988 19.250000
C 11.324870 18.931120 19.250000
C 12.484773 19.936182 19.250000
C 13.880850 20.573749 19.250000
C 15.400000 22.332169 19.250000
C 17.353018 22.051368 19.250000
C 19.147814 21.231712 19.250000
C 20.638984 19.939606 19.250000
C 21.705723 18.279727 19.250000
C 22.261610 16.386551 19.250000
C 22.261610 14.413449 19.250000
C 21.705723 12.520273 19.250000
C 20.638984 10.860394 19.250000
C 19.147814 9.568288 19.250000
C 17.353018 8.748632 19.250000
C 15.400000 8.467831 19.250000
C 13.446982 8.748632 19.250000
C 11.652186 9.568288 19.250000
C 10.161016 10.860394 19.250000
C 9.094277 12.520273 19.250000
C 8.538390 14.413449 19.250000
C 8.538390 16.386551 19.250000
C 9.094277 18.279727 19.250000
C 10.161016 19.939606 19.250000
C 11.652186 21.231712 19.250000
C 13.446982 22.051368 19.250000
C 15.400000 20.792169 20.790000
C 16.919150 20.573749 20.790000
C 18.315227 19.936182 20.790000
C 19.475130 18.931120 20.790000
C 20.304890 17.639988 20.790000
C 20.737285 16.167386 20.790000
C 20.737285 14.632614 20.790000
C 20.304890 13.160012 20.790000
C 19.475130 11.868880 20.790000
C 18.315227 10.863818 20.790000
C 16.919150 10.226251 20.790000
C 15.400000 10.007831 20.790000
C 13.880850 10.226251 20.790000
C 12.484773 10.863818 20.790000
C 11.324870 11.868880 20.790000
C 10.495110 13.160012 20.790000
C 10.062715 14.632614 20.790000
C 10.062715 16.167386 20.790000
C 10.495110 17.639988 20.790000
C 11.324870 18.931120 20.790000
C 12.484773 19.936182 20.790000
C 13.880850 20.573749 20.790000
C 15.400000 22.332169 20.790000
C 17.353018 22.051368 20.790000
C 19.147814 21.231712 20.790000
C 20.638984 19.939606 20.790000
C 21.705723 18.279727 20.790000
C 22.261610 16.386551 20.790000
C 22.261610 14.413449 20.790000
C 21.705723 12.520273 20.790000
C 20.638984 10.860394 20.790000
C 19.147814 9.568288 20.790000
C 17.353018 8.748632 20.790000
C 15.400000 8.467831 20.790000
C 13.446982 8.748632 20.790000
C 11.652186 9.568288 20.790000
C 10.161016 10.860394 20.790000
C 9.094277 12.520273 20.790000
C 8.538390 14.413449 20.790000
C 8.538390 16.386551 20.790000
C 9.094277 18.279727 20.790000
C 10.161016 19.939606 20.790000
C 11.652186 21.231712 20.790000
C 13.446982 22.051368 20.790000
C 15.400000 20.792169 22.330000
C 16.919150 20.573749 22.330000
C 18.315227 19.936182 22.330000
C 19.475130 18.931120 22.330000
C 20.304890 17.639988 22.330000
C 20.737285 16.167386 22.330000
C 20.737285 14.632614 22.330000
C 20.304890 13.160012 22.330000
C 19.475130 11.868880 22.330000
C 18.315227 10.863818 22.330000
C 16.919150 10.226251 22.330000
C 15.400000 10.007831 22.330000
C 13.880850 10.226251 22.330000
C 12.484773 10.863818 22.330000
C 11.324870 11.868880 22.330000
C 10.495110 13.160012 22.330000
C 10.062715 14.632614 22.330000
C 10.062715 16.167386 22.330000
C 10.495110 17.639988 22.330000
C 11.324870 18.931120 22.330000
C 12.484773 19.936182 22.330000
C 13.880850 20.573749 22.330000
C 15.400000 22.332169 22.330000
C 17.353018 22.051368 22.330000
C 19.147814 21.231712 22.330000
C 20.638984 19.939606 22.330000
C 21.705723 18.279727 22.330000
C 22.261610 16.386551 22.330000
C 22.261610 14.413449 22.330000
C 21.705723 12.520273 22.330000
C 20.638984 10.860394 22.330000
C 19.147814 9.568288 22.330000
C 17.353018 8.748632 22.330000
C 15.400000 8.467831 22.330000
C 13.446982 8.748632 22.330000
C 11.652186 9.568288 22.330000
C 10.161016 10.860394 22.330000
C 9.094277 12.520273 22.330000
C 8.538390 14.413449 22.330000
C 8.538390 16.386551 22.330000
C 9.094277 18.279727 22.330000
C 10.161016 19.939606 22.330000
C 11.652186 21.231712 22.330000
C 13.446982 22.051368 22.330000
C 15.400000 20.792169 23.870000
C 16.919150 20.573749 23.870000
C 18.315227 19.936182 23.870000
C 19.475130 18.931120 23.870000
C 20.304890 17.639988 23.870000
C 20.737285 16.167386 23.870000
C 20.737285 14.632614 23.870000
C 20.304890 13.160012 23.870000
C 19.475130 11.868880 23.870000
C 18.315227 10.863818 23.870000
C 16.919150 10.226251 23.870000
C 15.400000 10.007831 23.870000
C 13.880850 10.226251 23.870000
C 12.484773 10.863818 23.870000
C 11.324870 11.868880 23.870000
C 10.495110 13.160012 23.870000
C 10.062715 14.632614 23.870000
C 10.062715 16.167386 23.870000
C 10.495110 17.639988 23.870000
C 11.324870 18.931120 23.870000
C 12.484773 19.936182 23.870000
C 13.880850 20.573749 23.870000
C 15.400000 22.332169 23.870000
C 17.353018 22.051368 23.870000
C 19.147814 21.231712 23.870000
C 20.638984 19.939606 23.870000
C 21.705723 18.279727 23.870000
C 22.261610 16.386551 23.870000
C 22.261610 14.413449 23.870000
C 21.705723 12.520273 23.870000
C 20.638984 10.860394 23.870000
C 19.147814 9.568288 23.870000
C 17.353018 8.748632 23.870000
C 15.400000 8.467831 23.870000
C 13.446982 8.748632 23.870000
C 11.652186 9.568288 23.870000
C 10.161016 10.860394 23.870000
C 9.094277 12.520273 23.870000
C 8.538390 14.413449 23.870000
C 8.538390 16.386551 23.870000
C 9.094277 18.279727 23.870000
C 10.161016 19.939606 23.870000
C 11.652186 21.231712 23.870000
C 13.446982 22.051368 23.870000
C 15.400000 20.792169 25.410000
C 16.919150 20.573749 25.410000
C 18.315227 19.936182 25.410000
C 19.475130 18.931120 25.410000
C 20.304890 17.639988 25.410000
C 20.737285 16.167386 25.410000
C 20.737285 14.632614 25.410000
C 20.304890 13.160012 25.410000
C 19.475130 11.868880 25.410000
C 18.315227 10.863818 25.410000
C 16.919150 10.226251 25.410000
C 15.400000 10.007831 25.410000
C 13.880850 10.226251 25.410000
C 12.484773 10.863818 25.410000
C 11.324870 11.868880 25.410000
C 10.495110 13.160012 25.410000
C 10.062715 14.632614 25.410000
C 10.062715 16.167386 25.410000
C 10.495110 17.639988 25.410000
C 11.324870 18.931120 25.410000
C 12.484773 19.936182 25.410000
C 13.880850 20.573749 25.410000
C 15.400000 22.332169 25.410000
C 17.353018 22.051368 25.410000
C 19.147814 21.231712 25.410000
C 20.638984 19.939606 25.410000
C 21.705723 18.279727 25.410000
C 22.261610 16.386551 25.410000
C 22.261610 14.413449 25.410000
C 21.705723 12.520273 25.410000
C 20.638984 10.860394 25.410000
C 19.147814 9.568288 25.410000
C 17.353018 8.748632 25.410000
C 15.400000 8.467831 25.410000
C 13.446982 8.748632 25.410000
C 11.652186 9.568288 25.410000
C 10.161016 10.860394 25.410000
C 9.094277 12.520273 25.410000
C 8.538390 14.413449 25.410000
C 8.538390 16.386551 25.410000
C 9.094277 18.279727 25.410000
C 10.161016 19.939606 25.410000
C 11.652186 21.231712 25.410000
C 13.446982 22.051368 25.410000
C 15.400000 20.792169 26.950000
C 16.919150 20.573749 26.950000
C 18.315227 19.936182 26.950000
C 19.475130 18.931120 26.950000
C 20.304890 17.639988 26.950000
C 20.737285 16.167386 26.950000
C 20.737285 14.632614 26.950000
C 20.304890 13.160012 26.950000
C 19.475130 11.868880 26.950000
C 18.315227 10.863818 26.950000
C 16.919150 10.226251 26.950000
C 15.400000 10.007831 26.950000
C 13.880850 10.226251 26.950000
C 12.484773 10.863818 26.950000
C 11.324870 11.868880 26.950000
C 10.495110 13.160012 26.950000
C 10.062715 14.632614 26.950000
C 10.062715 16.167386 26.950000
C 10.495110 17.639988 26.950000
C 11.324870 18.931120 26.950000
C 12.484773 19.936182 26.950000
C 13.880850 20.573749 26.950000
C 15.400000 22.332169 26.950000
C 17.353018 22.051368 26.950000
C 19.147814 21.231712 26.950000
C 20.638984 19.939606 26.950000
C 21.705723 18.279727 26.950000
C 22.261610 16.386551 26.950000
C 22.261610 14.413449 26.950000
C 21.705723 12.520273 26.950000
C 20.638984 10.860394 26.950000
C 19.147814 9.568288 26.950000
C 17.353018 8.748632 26.950000
C 15.400000 8.467831 26.950000
C 13.446982 8.748632 26.950000
C 11.652186 9.568288 26.950000
C 10.161016 10.860394 26.950000
C 9.094277 12.520273 26.950000
C 8.538390 14.413449 26.950000
C 8.538390 16.386551 26.950000
C 9.094277 18.279727 26.950000
C 10.161016 19.939606 26.950000
C 11.652186 21.231712 26.950000
C 13.446982 22.051368 26.950000
C 15.400000 20.792169 28.490000
C 16.919150 20.573749 28.490000
C 18.315227 19.936182 28.490000
C 19.475130 18.931120 28.490000
C 20.304890 17.639988 28.490000
C 20.737285 16.167386 28.490000
C 20.737285 14.632614 28.490000
C 20.304890 13.160012 28.490000
C 19.475130 11.868880 28.490000
C 18.315227 10.863818 28.490000
C 16.919150 10.226251 28.490000
C 15.400000 10.007831 28.490000
C 13.880850 10.226251 28.490000
C 12.484773 10.863818 28.490000
C 11.324870 11.868880 28.490000
C 10.495110 13.160012 28.490000
C 10.062715 14.632614 28.490000
C 10.062715 16.167386 28.490000
C 10.495110 17.639988 28.490000
C 11.324870 18.931120 28.490000
C 12.484773 19.936182 28.490000
C 13.880850 20.573749 28.490000
C 15.400000 22.332169 28.490000
C 17.353018 22.051368 28.490000
C 19.147814 21.231712 28.490000
C 20.638984 19.939606 28.490000
C 21.705723 18.279727 28.490000
C 22.261610 16.386551 28.490000
C 22.261610 14.413449 28.490000
C 21.705723 12.520273 28.490000
C 20.638984 10.860394 28.490000
C 19.147814 9.568288 28.490000
C 17.353018 8.748632 28.490000
C 15.400000 8.467831 28.490000
C 13.446982 8.748632 28.490000
C 11.652186 9.568288 28.490000
C 10.161016 10.860394 28.490000
C 9.094277 12.520273 28.490000
C 8.538390 14.413449 28.490000
C 8.538390 16.386551 28.490000
C 9.094277 18.279727 28.490000
C 10.161016 19.939606 28.490000
C 11.652186 21.231712 28.490000
C 13.446982 22.051368 28.490000
C 15.400000 20.792169 30.030000
C 16.919150 20.573749 30.030000
C 18.315227 19.936182 30.030000
C 19.475130 18.931120 30.030000
C 20.304890 17.639988 30.030000
C 20.737285 16.167386 30.030000
C 20.737285 14.632614 30.030000
C 20.304890 13.160012 30.030000
C 19.475130 11.868880 30.030000
C 18.315227 10.863818 30.030000
C 16.919150 10.226251 30.030000
C 15.400000 10.007831 30.030000
C 13.880850 10.226251 30.030000
C 12.484773 10.863818 30.030000
C 11.324870 11.868880 30.030000
C 10.495110 13.160012 30.030000
C 10.062715 14.632614 30.030000
C 10.062715 16.167386 30.030000
C 10.495110 17.639988 30.030000
C 11.324870 18.931120 30.030000
C 12.484773 19.936182 30.030000
C 13.880850 20.573749 30.030000
C 15.400000 22.332169 30.030000
C 17.353018 22.051368 30.030000
C 19.147814 21.231712 30.030000
C 20.638984 19.939606 30.030000
C 21.705723 18.279727 30.030000
C 22.261610 16.386551 30.030000
C 22.261610 14.413449 30.030000
C 21.705723 12.520273 30.030000
C 20.638984 10.860394 30.030000
C 19.147814 9.568288 30.030000
C 17.353018 8.748632 30.030000
C 15.400000 8.467831 30.030000
C 13.446982 8.748632 30.030000
C 11.652186 9.568288 30.030000
C 10.161016 10.860394 30.030000
C 9.094277 12.520273 30.030000
C 8.538390 14.413449 30.030000
C 8.538390 16.386551 30.030000
C 9.094277 18.279727 30.030000
C 10.161016 19.939606 30.030000
C 11.652186 21.231712 30.030000
C 13.446982 22.051368 30.030000
