1033
Converted to XYZ format (including framework carbon atoms, lone pairs ignored)
H 13.038209008819 13.655294416361 15.197439337302
H 13.776259794889 14.825271256336 15.812525040679
O 13.453547762538 14.016068992943 15.875895364952
H 14.190429645011 16.986542150542 10.073102130790
H 13.334126873973 16.785716617393 8.840904962745
O 13.429920475313 16.758932402124 9.708702951136
H 13.641110943079 13.573180017961 2.991979579528
H 14.642879695283 13.555203983328 4.126894299091
O 13.919337401575 13.880101009770 3.760976783348
H 16.345236524808 12.802710481447 5.269721749902
H 16.862839422181 14.009892173683 4.516930414966
O 16.414059400199 13.260615124034 4.529077498576
H 14.249161266687 16.910443575676 12.796128278863
H 12.942446197854 16.695096237660 12.062632236416
O 13.425557665994 16.619668437096 12.786428556630
H 16.885596197656 14.619975766866 25.530377457598
H 17.786061511982 15.325309275634 24.538630488609
O 17.362413633005 15.315427367629 25.302431496355
H 12.980369859895 16.100257487794 24.320474294075
H 13.367955479590 17.156976313185 23.308042615955
O 13.323896063133 16.318115282390 23.547496360415
H 12.660067965881 16.518761001006 29.760315492729
H 13.220366305723 15.369670053025 28.949420336109
O 13.124009027612 16.227980744217 29.079747575175
H 13.866048383509 14.902320261243 25.896122257261
H 13.786816360160 14.144658126232 24.587854101629
O 13.893083507789 14.148993172064 25.454834872820
H 15.767228659091 17.707137747189 -0.492982972109
H 15.006811743055 16.901266619473 -1.524599679376
O 15.734011793906 17.314234626359 -1.272400019915
H 16.041219681578 18.115263159011 5.425508611553
H 16.429374896932 17.165933779214 4.311953741400
O 15.936937907858 17.823450250155 4.608846077334
H 16.888594416050 13.071353585593 30.028005263822
H 17.016747239412 14.072501248183 28.899654519174
O 16.692882410322 13.325288672014 29.215490070364
H 15.896509422564 12.996806692843 20.443955070007
H 15.156380752782 13.503283119088 19.224288569190
O 15.890316262015 13.211409621332 19.597270722243
H 13.526180245708 13.340320313614 30.979397867121
H 14.769920324242 13.469789477606 31.832769734489
O 13.902669438015 13.526312352324 31.745315621527
H 14.640440018893 13.729299702562 6.723353159530
H 13.449507835383 13.547359054327 5.806579836296
O 13.778823562916 13.767528474796 6.585067944614
H 17.254246446886 16.000342405662 22.355377632094
H 17.525589112328 14.533984145748 22.616264203009
O 17.815676465701 15.334418161599 22.421015974892
H 16.086624721609 17.528823930924 23.856131764132
H 15.408966973360 17.547799663908 22.502501427154
O 16.136508199802 17.508869829274 22.984305732557
H 13.473087231052 15.563907051497 6.826736912459
H 13.386501724106 16.597627821506 5.724094853116
O 13.608409991064 16.377738277507 6.539798516463
H 16.390579004820 16.737600164985 25.765772976004
H 16.479794762669 18.018774084213 26.567352122835
O 16.094357245601 17.538965914671 25.947522147939
H 14.703622258103 17.029465181928 16.163032522312
H 13.657753944864 16.840949626338 15.084831915719
O 13.910353342973 16.759015619670 15.916966231517
H 16.865711705669 16.830189348641 16.418759916580
H 16.585174570958 17.993359000201 17.346246018432
O 16.394627130773 17.535618009938 16.627127102137
H 15.339890786039 13.492771519995 16.365827398047
H 16.424726168881 12.651114813578 17.003511780850
O 16.133198573113 13.128713915594 16.332782390140
H 12.855069582238 16.285285800279 1.984600761289
H 13.573663741619 15.156260859768 1.276914171617
O 13.332889573540 15.995105594143 1.313444549382
H 15.235140817867 13.342826258049 22.503508460265
H 16.033638582123 12.632484402128 23.575754215490
O 16.000265972413 13.169234136756 22.887456933641
H 16.432059564495 12.396696487882 26.548122140808
H 15.397513603201 13.238507293820 25.831906801424
O 16.214352206093 12.935859778635 25.896298845041
H 13.340337316799 13.763890822905 20.941168704050
H 13.609612169169 14.853365977038 21.957254396204
O 13.583941669033 14.006685995289 21.744085001519
H 15.067645297227 13.346583175832 13.183358184340
H 15.922383110561 12.549437343069 14.145583201245
O 15.842229302175 13.011653634011 13.408766654002
H 16.158852791752 17.849609887141 20.237593262230
H 16.700825128032 16.912220426165 19.179546866012
O 16.267275625731 17.638683326982 19.396925889131
H 13.344638123196 13.816987443363 17.934557738571
H 13.647649077934 14.965747060813 18.872870529712
O 13.599551696188 14.107473331568 18.717886645200
H 18.095413966569 15.866912347971 3.060595228334
H 18.391339774157 15.374110028378 4.461119766355
O 17.828903411462 15.693721624423 3.874194794580
H 17.058866258405 16.701410880169 7.438806200271
H 18.225007274204 15.999290980156 8.101405603130
O 17.609535529677 16.024761558118 7.482121388695
H 15.630742430917 18.105478194457 8.144651719320
H 14.993432876120 17.354561190303 6.994932024947
O 15.659229373622 17.816602665569 7.320815218667
H 13.491455122241 13.882372753753 8.619879428552
H 13.505387890906 14.936860260592 9.706045699097
O 13.582055568081 14.102149422338 9.460389352385
H 16.807663875817 16.276666739437 0.921437330601
H 17.593289079275 15.764179864923 -0.266857849283
O 17.507456054083 15.867388737600 0.596245723465
H 15.179152503488 13.351700968387 10.090476578966
H 15.978464060782 12.685192421257 11.189913972533
O 15.945422738514 13.085026088110 10.414021926707
H 17.602568842260 14.412475747823 13.412637384752
H 18.134561903678 15.510783304325 14.308516330440
O 17.825173469398 15.248201076565 13.535020029673
H 15.691971964208 18.284032934246 1.895316696613
H 14.795407544811 17.176014848938 1.385058569882
O 15.528525241184 17.646545965409 1.320979957236
H 16.720001860113 12.795038865617 2.060547255433
H 16.843540719794 14.189499199601 1.484254171589
O 16.614848109382 13.351198352430 1.395268012680
H 14.681253560724 13.352870642728 28.854962280620
H 13.651913671939 13.779226929347 27.829986719150
O 13.935254043456 13.761383211126 28.656041797514
H 16.099880806666 17.904768181007 13.878935003758
H 16.561671233426 16.584018467073 13.300778462423
O 16.071748980256 17.304978353196 13.244562936515
H 13.446284239133 16.705360557215 27.119246303688
H 14.229569655127 17.130801013444 25.895579859478
O 13.580959108201 16.670677854723 26.256908233851
H 17.944373704692 15.348073151007 17.632804795380
H 17.158993621807 14.676177362403 16.526626976919
O 17.714372458873 15.296037658047 16.791758487917
H 16.524172543722 17.226746091248 10.027507149951
H 15.787010198448 18.059609075063 11.054554431383
O 15.850317492040 17.738285493557 10.244794899516
H 17.667047099323 15.700474274289 11.244102776080
H 16.988825663691 14.858279957117 10.184565326168
O 17.491010348606 15.538436466655 10.404030179100
H 14.014935995242 15.922997815932 3.830404460014
H 14.271324829146 17.386670547523 4.119924911865
O 13.714440983006 16.732560796615 3.961849067480
H 16.959965267553 14.317548620223 7.244845010348
H 16.703769074667 12.954673499268 7.852158855756
O 16.569074065683 13.536977664830 7.215176697273
H 13.556950265560 13.678507331284 11.721002890103
H 13.777638558892 14.838299261986 12.668670841475
O 13.678207030831 13.981447783721 12.531244234430
H 17.155500139653 14.586956855842 19.569209045491
H 18.307953961891 15.375221055736 20.154345721977
O 17.669339625590 15.293292271875 19.564069040455
H 17.990062163794 15.352321048271 27.323454104732
H 17.166565470590 16.271653369586 28.200139037111
O 17.633444648971 15.540476138913 28.098301681284
H 13.273168463800 16.847906614415 17.842392499490
H 14.404275421136 17.360083917561 18.708514114854
O 13.677868261252 16.883984324783 18.615621850755
H 13.824552024437 17.068328116577 20.622673860513
H 14.152327600627 18.498427890744 20.995866838708
O 14.131186906689 17.649063294140 21.198598212690
C 15.400000 20.792169 0.770000
C 16.919150 20.573749 0.770000
C 18.315227 19.936182 0.770000
C 19.475130 18.931120 0.770000
C 20.304890 17.639988 0.770000
C 20.737285 16.167386 0.770000
C 20.737285 14.632614 0.770000
C 20.304890 13.160012 0.770000
C 19.475130 11.868880 0.770000
C 18.315227 10.863818 0.770000
C 16.919150 10.226251 0.770000
C 15.400000 10.007831 0.770000
C 13.880850 10.226251 0.770000
C 12.484773 10.863818 0.770000
C 11.324870 11.868880 0.770000
C 10.495110 13.160012 0.770000
C 10.062715 14.632614 0.770000
C 10.062715 16.167386 0.770000
C 10.495110 17.639988 0.770000
C 11.324870 18.931120 0.770000
C 12.484773 19.936182 0.770000
C 13.880850 20.573749 0.770000
C 15.400000 22.332169 0.770000
C 17.353018 22.051368 0.770000
C 19.147814 21.231712 0.770000
C 20.638984 19.939606 0.770000
C 21.705723 18.279727 0.770000
C 22.261610 16.386551 0.770000
C 22.261610 14.413449 0.770000
C 21.705723 12.520273 0.770000
C 20.638984 10.860394 0.770000
C 19.147814 9.568288 0.770000
C 17.353018 8.748632 0.770000
C 15.400000 8.467831 0.770000
C 13.446982 8.748632 0.770000
C 11.652186 9.568288 0.770000
C 10.161016 10.860394 0.770000
C 9.094277 12.520273 0.770000
C 8.538390 14.413449 0.770000
C 8.538390 16.386551 0.770000
C 9.094277 18.279727 0.770000
C 10.161016 19.939606 0.770000
C 11.652186 21.231712 0.770000
C 13.446982 22.051368 0.770000
C 15.400000 20.792169 2.310000
C 16.919150 20.573749 2.310000
C 18.315227 19.936182 2.310000
C 19.475130 18.931120 2.310000
C 20.304890 17.639988 2.310000
C 20.737285 16.167386 2.310000
C 20.737285 14.632614 2.310000
C 20.304890 13.160012 2.310000
C 19.475130 11.868880 2.310000
C 18.315227 10.863818 2.310000
C 16.919150 10.226251 2.310000
C 15.400000 10.007831 2.310000
C 13.880850 10.226251 2.310000
C 12.484773 10.863818 2.310000
C 11.324870 11.868880 2.310000
C 10.495110 13.160012 2.310000
C 10.062715 14.632614 2.310000
C 10.062715 16.167386 2.310000
C 10.495110 17.639988 2.310000
C 11.324870 18.931120 2.310000
C 12.484773 19.936182 2.310000
C 13.880850 20.573749 2.310000
C 15.400000 22.332169 2.310000
C 17.353018 22.051368 2.310000
C 19.147814 21.231712 2.310000
C 20.638984 19.939606 2.310000
C 21.705723 18.279727 2.310000
C 22.261610 16.386551 2.310000
C 22.261610 14.413449 2.310000
C 21.705723 12.520273 2.310000
C 20.638984 10.860394 2.310000
C 19.147814 9.568288 2.310000
C 17.353018 8.748632 2.310000
C 15.400000 8.467831 2.310000
C 13.446982 8.748632 2.310000
C 11.652186 9.568288 2.310000
C 10.161016 10.860394 2.310000
C 9.094277 12.520273 2.310000
C 8.538390 14.413449 2.310000
C 8.538390 16.386551 2.310000
C 9.094277 18.279727 2.310000
C 10.161016 19.939606 2.310000
C 11.652186 21.231712 2.310000
C 13.446982 22.051368 2.310000
C 15.400000 20.792169 3.850000
C 16.919150 20.573749 3.850000
C 18.315227 19.936182 3.850000
C 19.475130 18.931120 3.850000
C 20.304890 17.639988 3.850000
C 20.737285 16.167386 3.850000
C 20.737285 14.632614 3.850000
C 20.304890 13.160012 3.850000
C 19.475130 11.868880 3.850000
C 18.315227 10.863818 3.850000
C 16.919150 10.226251 3.850000
C 15.400000 10.007831 3.850000
C 13.880850 10.226251 3.850000
C 12.484773 10.863818 3.850000
C 11.324870 11.868880 3.850000
C 10.495110 13.160012 3.850000
C 10.062715 14.632614 3.850000
C 10.062715 16.167386 3.850000
C 10.495110 17.639988 3.850000
C 11.324870 18.931120 3.850000
C 12.484773 19.936182 3.850000
C 13.880850 20.573749 3.850000
C 15.400000 22.332169 3.850000
C 17.353018 22.051368 3.850000
C 19.147814 21.231712 3.850000
C 20.638984 19.939606 3.850000
C 21.705723 18.279727 3.850000
C 22.261610 16.386551 3.850000
C 22.261610 14.413449 3.850000
C 21.705723 12.520273 3.850000
C 20.638984 10.860394 3.850000
C 19.147814 9.568288 3.850000
C 17.353018 8.748632 3.850000
C 15.400000 8.467831 3.850000
C 13.446982 8.748632 3.850000
C 11.652186 9.568288 3.850000
C 10.161016 10.860394 3.850000
C 9.094277 12.520273 3.850000
C 8.538390 14.413449 3.850000
C 8.538390 16.386551 3.850000
C 9.094277 18.279727 3.850000
C 10.161016 19.939606 3.850000
C 11.652186 21.231712 3.850000
C 13.446982 22.051368 3.850000
C 15.400000 20.792169 5.390000
C 16.919150 20.573749 5.390000
C 18.315227 19.936182 5.390000
C 19.475130 18.931120 5.390000
C 20.304890 17.639988 5.390000
C 20.737285 16.167386 5.390000
C 20.737285 14.632614 5.390000
C 20.304890 13.160012 5.390000
C 19.475130 11.868880 5.390000
C 18.315227 10.863818 5.390000
C 16.919150 10.226251 5.390000
C 15.400000 10.007831 5.390000
C 13.880850 10.226251 5.390000
C 12.484773 10.863818 5.390000
C 11.324870 11.868880 5.390000
C 10.495110 13.160012 5.390000
C 10.062715 14.632614 5.390000
C 10.062715 16.167386 5.390000
C 10.495110 17.639988 5.390000
C 11.324870 18.931120 5.390000
C 12.484773 19.936182 5.390000
C 13.880850 20.573749 5.390000
C 15.400000 22.332169 5.390000
C 17.353018 22.051368 5.390000
C 19.147814 21.231712 5.390000
C 20.638984 19.939606 5.390000
C 21.705723 18.279727 5.390000
C 22.261610 16.386551 5.390000
C 22.261610 14.413449 5.390000
C 21.705723 12.520273 5.390000
C 20.638984 10.860394 5.390000
C 19.147814 9.568288 5.390000
C 17.353018 8.748632 5.390000
C 15.400000 8.467831 5.390000
C 13.446982 8.748632 5.390000
C 11.652186 9.568288 5.390000
C 10.161016 10.860394 5.390000
C 9.094277 12.520273 5.390000
C 8.538390 14.413449 5.390000
C 8.538390 16.386551 5.390000
C 9.094277 18.279727 5.390000
C 10.161016 19.939606 5.390000
C 11.652186 21.231712 5.390000
C 13.446982 22.051368 5.390000
C 15.400000 20.792169 6.930000
C 16.919150 20.573749 6.930000
C 18.315227 19.936182 6.930000
C 19.475130 18.931120 6.930000
C 20.304890 17.639988 6.930000
C 20.737285 16.167386 6.930000
C 20.737285 14.632614 6.930000
C 20.304890 13.160012 6.930000
C 19.475130 11.868880 6.930000
C 18.315227 10.863818 6.930000
C 16.919150 10.226251 6.930000
C 15.400000 10.007831 6.930000
C 13.880850 10.226251 6.930000
C 12.484773 10.863818 6.930000
C 11.324870 11.868880 6.930000
C 10.495110 13.160012 6.930000
C 10.062715 14.632614 6.930000
C 10.062715 16.167386 6.930000
C 10.495110 17.639988 6.930000
C 11.324870 18.931120 6.930000
C 12.484773 19.936182 6.930000
C 13.880850 20.573749 6.930000
C 15.400000 22.332169 6.930000
C 17.353018 22.051368 6.930000
C 19.147814 21.231712 6.930000
C 20.638984 19.939606 6.930000
C 21.705723 18.279727 6.930000
C 22.261610 16.386551 6.930000
C 22.261610 14.413449 6.930000
C 21.705723 12.520273 6.930000
C 20.638984 10.860394 6.930000
C 19.147814 9.568288 6.930000
C 17.353018 8.748632 6.930000
C 15.400000 8.467831 6.930000
C 13.446982 8.748632 6.930000
C 11.652186 9.568288 6.930000
C 10.161016 10.860394 6.930000
C 9.094277 12.520273 6.930000
C 8.538390 14.413449 6.930000
C 8.538390 16.386551 6.930000
C 9.094277 18.279727 6.930000
C 10.161016 19.939606 6.930000
C 11.652186 21.231712 6.930000
C 13.446982 22.051368 6.930000
C 15.400000 20.792169 8.470000
C 16.919150 20.573749 8.470000
C 18.315227 19.936182 8.470000
C 19.475130 18.931120 8.470000
C 20.304890 17.639988 8.470000
C 20.737285 16.167386 8.470000
C 20.737285 14.632614 8.470000
C 20.304890 13.160012 8.470000
C 19.475130 11.868880 8.470000
C 18.315227 10.863818 8.470000
C 16.919150 10.226251 8.470000
C 15.400000 10.007831 8.470000
C 13.880850 10.226251 8.470000
C 12.484773 10.863818 8.470000
C 11.324870 11.868880 8.470000
C 10.495110 13.160012 8.470000
C 10.062715 14.632614 8.470000
C 10.062715 16.167386 8.470000
C 10.495110 17.639988 8.470000
C 11.324870 18.931120 8.470000
C 12.484773 19.936182 8.470000
C 13.880850 20.573749 8.470000
C 15.400000 22.332169 8.470000
C 17.353018 22.051368 8.470000
C 19.147814 21.231712 8.470000
C 20.638984 19.939606 8.470000
C 21.705723 18.279727 8.470000
C 22.261610 16.386551 8.470000
C 22.261610 14.413449 8.470000
C 21.705723 12.520273 8.470000
C 20.638984 10.860394 8.470000
C 19.147814 9.568288 8.470000
C 17.353018 8.748632 8.470000
C 15.400000 8.467831 8.470000
C 13.446982 8.748632 8.470000
C 11.652186 9.568288 8.470000
C 10.161016 10.860394 8.470000
C 9.094277 12.520273 8.470000
C 8.538390 14.413449 8.470000
C 8.538390 16.386551 8.470000
C 9.094277 18.279727 8.470000
C 10.161016 19.939606 8.470000
C 11.652186 21.231712 8.470000
C 13.446982 22.051368 8.470000
C 15.400000 20.792169 10.010000
C 16.919150 20.573749 10.010000
C 18.315227 19.936182 10.010000
C 19.475130 18.931120 10.010000
C 20.304890 17.639988 10.010000
C 20.737285 16.167386 10.010000
C 20.737285 14.632614 10.010000
C 20.304890 13.160012 10.010000
C 19.475130 11.868880 10.010000
C 18.315227 10.863818 10.010000
C 16.919150 10.226251 10.010000
C 15.400000 10.007831 10.010000
C 13.880850 10.226251 10.010000
C 12.484773 10.863818 10.010000
C 11.324870 11.868880 10.010000
C 10.495110 13.160012 10.010000
C 10.062715 14.632614 10.010000
C 10.062715 16.167386 10.010000
C 10.495110 17.639988 10.010000
C 11.324870 18.931120 10.010000
C 12.484773 19.936182 10.010000
C 13.880850 20.573749 10.010000
C 15.400000 22.332169 10.010000
C 17.353018 22.051368 10.010000
C 19.147814 21.231712 10.010000
C 20.638984 19.939606 10.010000
C 21.705723 18.279727 10.010000
C 22.261610 16.386551 10.010000
C 22.261610 14.413449 10.010000
C 21.705723 12.520273 10.010000
C 20.638984 10.860394 10.010000
C 19.147814 9.568288 10.010000
C 17.353018 8.748632 10.010000
C 15.400000 8.467831 10.010000
C 13.446982 8.748632 10.010000
C 11.652186 9.568288 10.010000
C 10.161016 10.860394 10.010000
C 9.094277 12.520273 10.010000
C 8.538390 14.413449 10.010000
C 8.538390 16.386551 10.010000
C 9.094277 18.279727 10.010000
C 10.161016 19.939606 10.010000
C 11.652186 21.231712 10.010000
C 13.446982 22.051368 10.010000
C 15.400000 20.792169 11.550000
C 16.919150 20.573749 11.550000
C 18.315227 19.936182 11.550000
C 19.475130 18.931120 11.550000
C 20.304890 17.639988 11.550000
C 20.737285 16.167386 11.550000
C 20.737285 14.632614 11.550000
C 20.304890 13.160012 11.550000
C 19.475130 11.868880 11.550000
C 18.315227 10.863818 11.550000
C 16.919150 10.226251 11.550000
C 15.400000 10.007831 11.550000
C 13.880850 10.226251 11.550000
C 12.484773 10.863818 11.550000
C 11.324870 11.868880 11.550000
C 10.495110 13.160012 11.550000
C 10.062715 14.632614 11.550000
C 10.062715 16.167386 11.550000
C 10.495110 17.639988 11.550000
C 11.324870 18.931120 11.550000
C 12.484773 19.936182 11.550000
C 13.880850 20.573749 11.550000
C 15.400000 22.332169 11.550000
C 17.353018 22.051368 11.550000
C 19.147814 21.231712 11.550000
C 20.638984 19.939606 11.550000
C 21.705723 18.279727 11.550000
C 22.261610 16.386551 11.550000
C 22.261610 14.413449 11.550000
C 21.705723 12.520273 11.550000
C 20.638984 10.860394 11.550000
C 19.147814 9.568288 11.550000
C 17.353018 8.748632 11.550000
C 15.400000 8.467831 11.550000
C 13.446982 8.748632 11.550000
C 11.652186 9.568288 11.550000
C 10.161016 10.860394 11.550000
C 9.094277 12.520273 11.550000
C 8.538390 14.413449 11.550000
C 8.538390 16.386551 11.550000
C 9.094277 18.279727 11.550000
C 10.161016 19.939606 11.550000
C 11.652186 21.231712 11.550000
C 13.446982 22.051368 11.550000
C 15.400000 20.792169 13.090000
C 16.919150 20.573749 13.090000
C 18.315227 19.936182 13.090000
C 19.475130 18.931120 13.090000
C 20.304890 17.639988 13.090000
C 20.737285 16.167386 13.090000
C 20.737285 14.632614 13.090000
C 20.304890 13.160012 13.090000
C 19.475130 11.868880 13.090000
C 18.315227 10.863818 13.090000
C 16.919150 10.226251 13.090000
C 15.400000 10.007831 13.090000
C 13.880850 10.226251 13.090000
C 12.484773 10.863818 13.090000
C 11.324870 11.868880 13.090000
C 10.495110 13.160012 13.090000
C 10.062715 14.632614 13.090000
C 10.062715 16.167386 13.090000
C 10.495110 17.639988 13.090000
C 11.324870 18.931120 13.090000
C 12.484773 19.936182 13.090000
C 13.880850 20.573749 13.090000
C 15.400000 22.332169 13.090000
C 17.353018 22.051368 13.090000
C 19.147814 21.231712 13.090000
C 20.638984 19.939606 13.090000
C 21.705723 18.279727 13.090000
C 22.261610 16.386551 13.090000
C 22.261610 14.413449 13.090000
C 21.705723 12.520273 13.090000
C 20.638984 10.860394 13.090000
C 19.147814 9.568288 13.090000
C 17.353018 8.748632 13.090000
C 15.400000 8.467831 13.090000
C 13.446982 8.748632 13.090000
C 11.652186 9.568288 13.090000
C 10.161016 10.860394 13.090000
C 9.094277 12.520273 13.090000
C 8.538390 14.413449 13.090000
C 8.538390 16.386551 13.090000
C 9.094277 18.279727 13.090000
C 10.161016 19.939606 13.090000
C 11.652186 21.231712 13.090000
C 13.446982 22.051368 13.090000
C 15.400000 20.792169 14.630000
C 16.919150 20.573749 14.630000
C 18.315227 19.936182 14.630000
C 19.475130 18.931120 14.630000
C 20.304890 17.639988 14.630000
C 20.737285 16.167386 14.630000
C 20.737285 14.632614 14.630000
C 20.304890 13.160012 14.630000
C 19.475130 11.868880 14.630000
C 18.315227 10.863818 14.630000
C 16.919150 10.226251 14.630000
C 15.400000 10.007831 14.630000
C 13.880850 10.226251 14.630000
C 12.484773 10.863818 14.630000
C 11.324870 11.868880 14.630000
C 10.495110 13.160012 14.630000
C 10.062715 14.632614 14.630000
C 10.062715 16.167386 14.630000
C 10.495110 17.639988 14.630000
C 11.324870 18.931120 14.630000
C 12.484773 19.936182 14.630000
C 13.880850 20.573749 14.630000
C 15.400000 22.332169 14.630000
C 17.353018 22.051368 14.630000
C 19.147814 21.231712 14.630000
C 20.638984 19.939606 14.630000
C 21.705723 18.279727 14.630000
C 22.261610 16.386551 14.630000
C 22.261610 14.413449 14.630000
C 21.705723 12.520273 14.630000
C 20.638984 10.860394 14.630000
C 19.147814 9.568288 14.630000
C 17.353018 8.748632 14.630000
C 15.400000 8.467831 14.630000
C 13.446982 8.748632 14.630000
C 11.652186 9.568288 14.630000
C 10.161016 10.860394 14.630000
C 9.094277 12.520273 14.630000
C 8.538390 14.413449 14.630000
C 8.538390 16.386551 14.630000
C 9.094277 18.279727 14.630000
C 10.161016 19.939606 14.630000
C 11.652186 21.231712 14.630000
C 13.446982 22.051368 14.630000
C 15.400000 20.792169 16.170000
C 16.919150 20.573749 16.170000
C 18.315227 19.936182 16.170000
C 19.475130 18.931120 16.170000
C 20.304890 17.639988 16.170000
C 20.737285 16.167386 16.170000
C 20.737285 14.632614 16.170000
C 20.304890 13.160012 16.170000
C 19.475130 11.868880 16.170000
C 18.315227 10.863818 16.170000
C 16.919150 10.226251 16.170000
C 15.400000 10.007831 16.170000
C 13.880850 10.226251 16.170000
C 12.484773 10.863818 16.170000
C 11.324870 11.868880 16.170000
C 10.495110 13.160012 16.170000
C 10.062715 14.632614 16.170000
C 10.062715 16.167386 16.170000
C 10.495110 17.639988 16.170000
C 11.324870 18.931120 16.170000
C 12.484773 19.936182 16.170000
C 13.880850 20.573749 16.170000
C 15.400000 22.332169 16.170000
C 17.353018 22.051368 16.170000
C 19.147814 21.231712 16.170000
C 20.638984 19.939606 16.170000
C 21.705723 18.279727 16.170000
C 22.261610 16.386551 16.170000
C 22.261610 14.413449 16.170000
C 21.705723 12.520273 16.170000
C 20.638984 10.860394 16.170000
C 19.147814 9.568288 16.170000
C 17.353018 8.748632 16.170000
C 15.400000 8.467831 16.170000
C 13.446982 8.748632 16.170000
C 11.652186 9.568288 16.170000
C 10.161016 10.860394 16.170000
C 9.094277 12.520273 16.170000
C 8.538390 14.413449 16.170000
C 8.538390 16.386551 16.170000
C 9.094277 18.279727 16.170000
C 10.161016 19.939606 16.170000
C 11.652186 21.231712 16.170000
C 13.446982 22.051368 16.170000
C 15.400000 20.792169 17.710000
C 16.919150 20.573749 17.710000
C 18.315227 19.936182 17.710000
C 19.475130 18.931120 17.710000
C 20.304890 17.639988 17.710000
C 20.737285 16.167386 17.710000
C 20.737285 14.632614 17.710000
C 20.304890 13.160012 17.710000
C 19.475130 11.868880 17.710000
C 18.315227 10.863818 17.710000
C 16.919150 10.226251 17.710000
C 15.400000 10.007831 17.710000
C 13.880850 10.226251 17.710000
C 12.484773 10.863818 17.710000
C 11.324870 11.868880 17.710000
C 10.495110 13.160012 17.710000
C 10.062715 14.632614 17.710000
C 10.062715 16.167386 17.710000
C 10.495110 17.639988 17.710000
C 11.324870 18.931120 17.710000
C 12.484773 19.936182 17.710000
C 13.880850 20.573749 17.710000
C 15.400000 22.332169 17.710000
C 17.353018 22.051368 17.710000
C 19.147814 21.231712 17.710000
C 20.638984 19.939606 17.710000
C 21.705723 18.279727 17.710000
C 22.261610 16.386551 17.710000
C 22.261610 14.413449 17.710000
C 21.705723 12.520273 17.710000
C 20.638984 10.860394 17.710000
C 19.147814 9.568288 17.710000
C 17.353018 8.748632 17.710000
C 15.400000 8.467831 17.710000
C 13.446982 8.748632 17.710000
C 11.652186 9.568288 17.710000
C 10.161016 10.860394 17.710000
C 9.094277 12.520273 17.710000
C 8.538390 14.413449 17.710000
C 8.538390 16.386551 17.710000
C 9.094277 18.279727 17.710000
C 10.161016 19.939606 17.710000
C 11.652186 21.231712 17.710000
C 13.446982 22.051368 17.710000
C 15.400000 20.792169 19.250000
C 16.919150 20.573749 19.250000
C 18.315227 19.936182 19.250000
C 19.475130 18.931120 19.250000
C 20.304890 17.639988 19.250000
C 20.737285 16.167386 19.250000
C 20.737285 14.632614 19.250000
C 20.304890 13.160012 19.250000
C 19.475130 11.868880 19.250000
C 18.315227 10.863818 19.250000
C 16.919150 10.226251 19.250000
C 15.400000 10.007831 19.250000
C 13.880850 10.226251 19.250000
C 12.484773 10.863818 19.250000
C 11.324870 11.868880 19.250000
C 10.495110 13.160012 19.250000
C 10.062715 14.632614 19.250000
C 10.062715 16.167386 19.250000
C 10.495110 17.639988 19.250000
C 11.324870 18.931120 19.250000
C 12.484773 19.936182 19.250000
C 13.880850 20.573749 19.250000
C 15.400000 22.332169 19.250000
C 17.353018 22.051368 19.250000
C 19.147814 21.231712 19.250000
C 20.638984 19.939606 19.250000
C 21.705723 18.279727 19.250000
C 22.261610 16.386551 19.250000
C 22.261610 14.413449 19.250000
C 21.705723 12.520273 19.250000
C 20.638984 10.860394 19.250000
C 19.147814 9.568288 19.250000
C 17.353018 8.748632 19.250000
C 15.400000 8.467831 19.250000
C 13.446982 8.748632 19.250000
C 11.652186 9.568288 19.250000
C 10.161016 10.860394 19.250000
C 9.094277 12.520273 19.250000
C 8.538390 14.413449 19.250000
C 8.538390 16.386551 19.250000
C 9.094277 18.279727 19.250000
C 10.161016 19.939606 19.250000
C 11.652186 21.231712 19.250000
C 13.446982 22.051368 19.250000
C 15.400000 20.792169 20.790000
C 16.919150 20.573749 20.790000
C 18.315227 19.936182 20.790000
C 19.475130 18.931120 20.790000
C 20.304890 17.639988 20.790000
C 20.737285 16.167386 20.790000
C 20.737285 14.632614 20.790000
C 20.304890 13.160012 20.790000
C 19.475130 11.868880 20.790000
C 18.315227 10.863818 20.790000
C 16.919150 10.226251 20.790000
C 15.400000 10.007831 20.790000
C 13.880850 10.226251 20.790000
C 12.484773 10.863818 20.790000
C 11.324870 11.868880 20.790000
C 10.495110 13.160012 20.790000
C 10.062715 14.632614 20.790000
C 10.062715 16.167386 20.790000
C 10.495110 17.639988 20.790000
C 11.324870 18.931120 20.790000
C 12.484773 19.936182 20.790000
C 13.880850 20.573749 20.790000
C 15.400000 22.332169 20.790000
C 17.353018 22.051368 20.790000
C 19.147814 21.231712 20.790000
C 20.638984 19.939606 20.790000
C 21.705723 18.279727 20.790000
C 22.261610 16.386551 20.790000
C 22.261610 14.413449 20.790000
C 21.705723 12.520273 20.790000
C 20.638984 10.860394 20.790000
C 19.147814 9.568288 20.790000
C 17.353018 8.748632 20.790000
C 15.400000 8.467831 20.790000
C 13.446982 8.748632 20.790000
C 11.652186 9.568288 20.790000
C 10.161016 10.860394 20.790000
C 9.094277 12.520273 20.790000
C 8.538390 14.413449 20.790000
C 8.538390 16.386551 20.790000
C 9.094277 18.279727 20.790000
C 10.161016 19.939606 20.790000
C 11.652186 21.231712 20.790000
C 13.446982 22.051368 20.790000
C 15.400000 20.792169 22.330000
C 16.919150 20.573749 22.330000
C 18.315227 19.936182 22.330000
C 19.475130 18.931120 22.330000
C 20.304890 17.639988 22.330000
C 20.737285 16.167386 22.330000
C 20.737285 14.632614 22.330000
C 20.304890 13.160012 22.330000
C 19.475130 11.868880 22.330000
C 18.315227 10.863818 22.330000
C 16.919150 10.226251 22.330000
C 15.400000 10.007831 22.330000
C 13.880850 10.226251 22.330000
C 12.484773 10.863818 22.330000
C 11.324870 11.868880 22.330000
C 10.495110 13.160012 22.330000
C 10.062715 14.632614 22.330000
C 10.062715 16.167386 22.330000
C 10.495110 17.639988 22.330000
C 11.324870 18.931120 22.330000
C 12.484773 19.936182 22.330000
C 13.880850 20.573749 22.330000
C 15.400000 22.332169 22.330000
C 17.353018 22.051368 22.330000
C 19.147814 21.231712 22.330000
C 20.638984 19.939606 22.330000
C 21.705723 18.279727 22.330000
C 22.261610 16.386551 22.330000
C 22.261610 14.413449 22.330000
C 21.705723 12.520273 22.330000
C 20.638984 10.860394 22.330000
C 19.147814 9.568288 22.330000
C 17.353018 8.748632 22.330000
C 15.400000 8.467831 22.330000
C 13.446982 8.748632 22.330000
C 11.652186 9.568288 22.330000
C 10.161016 10.860394 22.330000
C 9.094277 12.520273 22.330000
C 8.538390 14.413449 22.330000
C 8.538390 16.386551 22.330000
C 9.094277 18.279727 22.330000
C 10.161016 19.939606 22.330000
C 11.652186 21.231712 22.330000
C 13.446982 22.051368 22.330000
C 15.400000 20.792169 23.870000
C 16.919150 20.573749 23.870000
C 18.315227 19.936182 23.870000
C 19.475130 18.931120 23.870000
C 20.304890 17.639988 23.870000
C 20.737285 16.167386 23.870000
C 20.737285 14.632614 23.870000
C 20.304890 13.160012 23.870000
C 19.475130 11.868880 23.870000
C 18.315227 10.863818 23.870000
C 16.919150 10.226251 23.870000
C 15.400000 10.007831 23.870000
C 13.880850 10.226251 23.870000
C 12.484773 10.863818 23.870000
C 11.324870 11.868880 23.870000
C 10.495110 13.160012 23.870000
C 10.062715 14.632614 23.870000
C 10.062715 16.167386 23.870000
C 10.495110 17.639988 23.870000
C 11.324870 18.931120 23.870000
C 12.484773 19.936182 23.870000
C 13.880850 20.573749 23.870000
C 15.400000 22.332169 23.870000
C 17.353018 22.051368 23.870000
C 19.147814 21.231712 23.870000
C 20.638984 19.939606 23.870000
C 21.705723 18.279727 23.870000
C 22.261610 16.386551 23.870000
C 22.261610 14.413449 23.870000
C 21.705723 12.520273 23.870000
C 20.638984 10.860394 23.870000
C 19.147814 9.568288 23.870000
C 17.353018 8.748632 23.870000
C 15.400000 8.467831 23.870000
C 13.446982 8.748632 23.870000
C 11.652186 9.568288 23.870000
C 10.161016 10.860394 23.870000
C 9.094277 12.520273 23.870000
C 8.538390 14.413449 23.870000
C 8.538390 16.386551 23.870000
C 9.094277 18.279727 23.870000
C 10.161016 19.939606 23.870000
C 11.652186 21.231712 23.870000
C 13.446982 22.051368 23.870000
C 15.400000 20.792169 25.410000
C 16.919150 20.573749 25.410000
C 18.315227 19.936182 25.410000
C 19.475130 18.931120 25.410000
C 20.304890 17.639988 25.410000
C 20.737285 16.167386 25.410000
C 20.737285 14.632614 25.410000
C 20.304890 13.160012 25.410000
C 19.475130 11.868880 25.410000
C 18.315227 10.863818 25.410000
C 16.919150 10.226251 25.410000
C 15.400000 10.007831 25.410000
C 13.880850 10.226251 25.410000
C 12.484773 10.863818 25.410000
C 11.324870 11.868880 25.410000
C 10.495110 13.160012 25.410000
C 10.062715 14.632614 25.410000
C 10.062715 16.167386 25.410000
C 10.495110 17.639988 25.410000
C 11.324870 18.931120 25.410000
C 12.484773 19.936182 25.410000
C 13.880850 20.573749 25.410000
C 15.400000 22.332169 25.410000
C 17.353018 22.051368 25.410000
C 19.147814 21.231712 25.410000
C 20.638984 19.939606 25.410000
C 21.705723 18.279727 25.410000
C 22.261610 16.386551 25.410000
C 22.261610 14.413449 25.410000
C 21.705723 12.520273 25.410000
C 20.638984 10.860394 25.410000
C 19.147814 9.568288 25.410000
C 17.353018 8.748632 25.410000
C 15.400000 8.467831 25.410000
C 13.446982 8.748632 25.410000
C 11.652186 9.568288 25.410000
C 10.161016 10.860394 25.410000
C 9.094277 12.520273 25.410000
C 8.538390 14.413449 25.410000
C 8.538390 16.386551 25.410000
C 9.094277 18.279727 25.410000
C 10.161016 19.939606 25.410000
C 11.652186 21.231712 25.410000
C 13.446982 22.051368 25.410000
C 15.400000 20.792169 26.950000
C 16.919150 20.573749 26.950000
C 18.315227 19.936182 26.950000
C 19.475130 18.931120 26.950000
C 20.304890 17.639988 26.950000
C 20.737285 16.167386 26.950000
C 20.737285 14.632614 26.950000
C 20.304890 13.160012 26.950000
C 19.475130 11.868880 26.950000
C 18.315227 10.863818 26.950000
C 16.919150 10.226251 26.950000
C 15.400000 10.007831 26.950000
C 13.880850 10.226251 26.950000
C 12.484773 10.863818 26.950000
C 11.324870 11.868880 26.950000
C 10.495110 13.160012 26.950000
C 10.062715 14.632614 26.950000
C 10.062715 16.167386 26.950000
C 10.495110 17.639988 26.950000
C 11.324870 18.931120 26.950000
C 12.484773 19.936182 26.950000
C 13.880850 20.573749 26.950000
C 15.400000 22.332169 26.950000
C 17.353018 22.051368 26.950000
C 19.147814 21.231712 26.950000
C 20.638984 19.939606 26.950000
C 21.705723 18.279727 26.950000
C 22.261610 16.386551 26.950000
C 22.261610 14.413449 26.950000
C 21.705723 12.520273 26.950000
C 20.638984 10.860394 26.950000
C 19.147814 9.568288 26.950000
C 17.353018 8.748632 26.950000
C 15.400000 8.467831 26.950000
C 13.446982 8.748632 26.950000
C 11.652186 9.568288 26.950000
C 10.161016 10.860394 26.950000
C 9.094277 12.520273 26.950000
C 8.538390 14.413449 26.950000
C 8.538390 16.386551 26.950000
C 9.094277 18.279727 26.950000
C 10.161016 19.939606 26.950000
C 11.652186 21.231712 26.950000
C 13.446982 22.051368 26.950000
C 15.400000 20.792169 28.490000
C 16.919150 20.573749 28.490000
C 18.315227 19.936182 28.490000
C 19.475130 18.931120 28.490000
C 20.304890 17.639988 28.490000
C 20.737285 16.167386 28.490000
C 20.737285 14.632614 28.490000
C 20.304890 13.160012 28.490000
C 19.475130 11.868880 28.490000
C 18.315227 10.863818 28.490000
C 16.919150 10.226251 28.490000
C 15.400000 10.007831 28.490000
C 13.880850 10.226251 28.490000
C 12.484773 10.863818 28.490000
C 11.324870 11.868880 28.490000
C 10.495110 13.160012 28.490000
C 10.062715 14.632614 28.490000
C 10.062715 16.167386 28.490000
C 10.495110 17.639988 28.490000
C 11.324870 18.931120 28.490000
C 12.484773 19.936182 28.490000
C 13.880850 20.573749 28.490000
C 15.400000 22.332169 28.490000
C 17.353018 22.051368 28.490000
C 19.147814 21.231712 28.490000
C 20.638984 19.939606 28.490000
C 21.705723 18.279727 28.490000
C 22.261610 16.386551 28.490000
C 22.261610 14.413449 28.490000
C 21.705723 12.520273 28.490000
C 20.638984 10.860394 28.490000
C 19.147814 9.568288 28.490000
C 17.353018 8.748632 28.490000
C 15.400000 8.467831 28.490000
C 13.446982 8.748632 28.490000
C 11.652186 9.568288 28.490000
C 10.161016 10.860394 28.490000
C 9.094277 12.520273 28.490000
C 8.538390 14.413449 28.490000
C 8.538390 16.386551 28.490000
C 9.094277 18.279727 28.490000
C 10.161016 19.939606 28.490000
C 11.652186 21.231712 28.490000
C 13.446982 22.051368 28.490000
C 15.400000 20.792169 30.030000
C 16.919150 20.573749 30.030000
C 18.315227 19.936182 30.030000
C 19.475130 18.931120 30.030000
C 20.304890 17.639988 30.030000
C 20.737285 16.167386 30.030000
C 20.737285 14.632614 30.030000
C 20.304890 13.160012 30.030000
C 19.475130 11.868880 30.030000
C 18.315227 10.863818 30.030000
C 16.919150 10.226251 30.030000
C 15.400000 10.007831 30.030000
C 13.880850 10.226251 30.030000
C 12.484773 10.863818 30.030000
C 11.324870 11.868880 30.030000
C 10.495110 13.160012 30.030000
C 10.062715 14.632614 30.030000
C 10.062715 16.167386 30.030000
C 10.495110 17.639988 30.030000
C 11.324870 18.931120 30.030000
C 12.484773 19.936182 30.030000
C 13.880850 20.573749 30.030000
C 15.400000 22.332169 30.030000
C 17.353018 22.051368 30.030000
C 19.147814 21.231712 30.030000
C 20.638984 19.939606 30.030000
C 21.705723 18.279727 30.030000
C 22.261610 16.386551 30.030000
C 22.261610 14.413449 30.030000
C 21.705723 12.520273 30.030000
C 20.638984 10.860394 30.030000
C 19.147814 9.568288 30.030000
C 17.353018 8.748632 30.030000
C 15.400000 8.467831 30.030000
C 13.446982 8.748632 30.030000
C 11.652186 9.568288 30.030000
C 10.161016 10.860394 30.030000
C 9.094277 12.520273 30.030000
C 8.538390 14.413449 30.030000
C 8.538390 16.386551 30.030000
C 9.094277 18.279727 30.030000
C 10.161016 19.939606 30.030000
C 11.652186 21.231712 30.030000
C 13.446982 22.051368 30.030000
