1006
Converted to XYZ format (including framework carbon atoms, lone pairs ignored)
H 17.149306 17.143210 29.965808
H 16.124418 17.156901 28.851666
O 16.931047 16.979541 29.136024
H 16.292624 16.612511 17.473479
H 15.506153 17.739862 16.839100
O 15.666996 17.220096 17.522430
H 16.700587 13.908266 11.089939
H 16.450992 15.168733 11.890451
O 16.406225 14.299836 11.813120
H 17.328950 15.021616 14.272442
H 16.622175 16.347622 14.457030
O 17.360221 15.881863 14.420645
H 14.219194 15.383677 5.806058
H 13.707435 14.509769 4.680766
O 13.830827 14.650100 5.534024
H 14.584746 13.942596 11.670752
H 13.165326 14.021654 11.150280
O 13.769916 14.250023 11.737890
H 17.562156 16.660354 26.967522
H 17.599593 16.455160 25.468059
O 17.208266 16.332604 26.239299
H 13.248573 15.737733 21.441316
H 14.032489 14.758842 20.593292
O 13.594400 15.510397 20.672102
H 13.508042 14.440530 7.638023
H 14.499302 13.812465 8.594493
O 13.786300 14.296925 8.453448
H 13.165722 14.750618 14.401560
H 13.361179 15.218615 15.827978
O 13.693434 15.009372 15.047728
H 17.782976 16.053561 9.995830
H 16.481044 16.207167 9.238681
O 17.255703 15.816764 9.340943
H 13.888620 15.913834 23.470050
H 13.247183 14.784433 24.247807
O 13.389533 15.197296 23.491337
H 13.907380 15.614530 26.093766
H 14.831950 14.418065 26.168178
O 14.027887 14.756979 26.208006
H 16.994771 13.809257 28.053474
H 17.018488 15.171931 28.712603
O 16.992499 14.301093 28.775318
H 15.423233 13.404346 2.589267
H 16.884219 13.597898 2.242926
O 16.264021 13.402043 2.825989
H 14.918134 17.905558 13.835453
H 14.516018 16.702083 14.661193
O 15.081702 17.343572 14.483824
H 14.960117 17.361590 5.484807
H 15.788069 16.532237 6.443224
O 15.026635 16.899129 6.222826
H 14.806577 13.851877 23.310719
H 15.841388 13.179836 22.433551
O 15.596504 13.492515 23.211517
H 16.005404 13.784760 19.977914
H 15.225531 12.554347 19.565876
O 15.438033 13.148871 20.169491
H 14.099582 17.508257 27.529227
H 13.826684 16.415447 28.540755
O 14.117559 17.217300 28.352627
H 18.004896 15.286833 19.672398
H 16.744695 15.939109 20.199964
O 17.450029 15.440366 20.329298
H 17.130570 14.372179 17.260984
H 17.834667 15.506712 16.547557
O 17.519012 15.154258 17.281795
H 14.541944 16.082711 2.732134
H 13.472471 16.484014 3.725653
O 13.743487 15.975058 3.069543
H 16.788715 14.868334 23.457216
H 17.521942 15.622229 22.368218
O 17.339659 15.500934 23.213811
H 14.484585 14.477846 29.346408
H 13.702235 14.417318 28.051743
O 13.733043 14.570799 28.911081
H 15.347780 17.850791 22.520528
H 15.863475 16.856424 23.538952
O 15.247164 17.414034 23.270253
H 14.632527 16.930673 20.317458
H 15.546972 17.755083 19.436530
O 15.281361 17.509106 20.231460
H 15.876963 17.215271 0.810750
H 17.011867 16.217939 0.714748
O 16.731762 17.044283 0.755535
H 14.026403 16.210726 17.634620
H 13.043047 15.372381 18.423343
O 13.303435 15.721557 17.666216
H 18.050622 15.850034 6.290072
H 16.898213 14.975165 5.844593
O 17.315643 15.742316 5.830540
H 16.488154 12.888185 25.646349
H 17.001630 14.258463 26.034390
O 16.579511 13.522019 26.240383
H 15.303894 12.926132 16.608936
H 14.349475 13.903093 17.262026
O 14.952524 13.274716 17.328656
H 16.200005 13.474426 13.541726
H 15.365079 13.961118 14.707025
O 16.040113 13.499511 14.400080
H 16.511639 16.441869 3.986837
H 16.588433 17.052541 2.603697
O 16.159072 16.930586 3.354525
H 17.010113 14.301539 0.015115
H 18.241603 14.933042 0.628735
O 17.459385 14.555177 0.719948
H 17.130719 17.091046 12.652780
H 15.839066 17.158408 11.866020
O 16.683283 16.940296 11.917904
H 13.766579 16.202821 11.739753
H 14.137128 17.314840 10.781629
O 13.924952 17.047916 11.585806
H 14.025823 16.042844 9.208444
H 14.483259 17.072658 8.197439
O 14.512651 16.738669 9.004009
H 15.286895 13.619047 5.843734
H 16.281401 13.321402 4.741799
O 16.110674 13.496761 5.580290
H 13.943032 12.457735 1.926198
H 14.242638 12.592129 0.448339
O 14.066435 12.958677 1.221360
H 16.498460 14.133967 8.939871
H 16.478710 13.043014 7.890430
O 16.266007 13.330778 8.687246
H 15.271800 17.093508 25.955756
H 14.335764 17.724514 24.947012
O 14.476981 17.383528 25.738690
C 15.400000 20.792169 0.770000
C 16.919150 20.573749 0.770000
C 18.315227 19.936182 0.770000
C 19.475130 18.931120 0.770000
C 20.304890 17.639988 0.770000
C 20.737285 16.167386 0.770000
C 20.737285 14.632614 0.770000
C 20.304890 13.160012 0.770000
C 19.475130 11.868880 0.770000
C 18.315227 10.863818 0.770000
C 16.919150 10.226251 0.770000
C 15.400000 10.007831 0.770000
C 13.880850 10.226251 0.770000
C 12.484773 10.863818 0.770000
C 11.324870 11.868880 0.770000
C 10.495110 13.160012 0.770000
C 10.062715 14.632614 0.770000
C 10.062715 16.167386 0.770000
C 10.495110 17.639988 0.770000
C 11.324870 18.931120 0.770000
C 12.484773 19.936182 0.770000
C 13.880850 20.573749 0.770000
C 15.400000 22.332169 0.770000
C 17.353018 22.051368 0.770000
C 19.147814 21.231712 0.770000
C 20.638984 19.939606 0.770000
C 21.705723 18.279727 0.770000
C 22.261610 16.386551 0.770000
C 22.261610 14.413449 0.770000
C 21.705723 12.520273 0.770000
C 20.638984 10.860394 0.770000
C 19.147814 9.568288 0.770000
C 17.353018 8.748632 0.770000
C 15.400000 8.467831 0.770000
C 13.446982 8.748632 0.770000
C 11.652186 9.568288 0.770000
C 10.161016 10.860394 0.770000
C 9.094277 12.520273 0.770000
C 8.538390 14.413449 0.770000
C 8.538390 16.386551 0.770000
C 9.094277 18.279727 0.770000
C 10.161016 19.939606 0.770000
C 11.652186 21.231712 0.770000
C 13.446982 22.051368 0.770000
C 15.400000 20.792169 2.310000
C 16.919150 20.573749 2.310000
C 18.315227 19.936182 2.310000
C 19.475130 18.931120 2.310000
C 20.304890 17.639988 2.310000
C 20.737285 16.167386 2.310000
C 20.737285 14.632614 2.310000
C 20.304890 13.160012 2.310000
C 19.475130 11.868880 2.310000
C 18.315227 10.863818 2.310000
C 16.919150 10.226251 2.310000
C 15.400000 10.007831 2.310000
C 13.880850 10.226251 2.310000
C 12.484773 10.863818 2.310000
C 11.324870 11.868880 2.310000
C 10.495110 13.160012 2.310000
C 10.062715 14.632614 2.310000
C 10.062715 16.167386 2.310000
C 10.495110 17.639988 2.310000
C 11.324870 18.931120 2.310000
C 12.484773 19.936182 2.310000
C 13.880850 20.573749 2.310000
C 15.400000 22.332169 2.310000
C 17.353018 22.051368 2.310000
C 19.147814 21.231712 2.310000
C 20.638984 19.939606 2.310000
C 21.705723 18.279727 2.310000
C 22.261610 16.386551 2.310000
C 22.261610 14.413449 2.310000
C 21.705723 12.520273 2.310000
C 20.638984 10.860394 2.310000
C 19.147814 9.568288 2.310000
C 17.353018 8.748632 2.310000
C 15.400000 8.467831 2.310000
C 13.446982 8.748632 2.310000
C 11.652186 9.568288 2.310000
C 10.161016 10.860394 2.310000
C 9.094277 12.520273 2.310000
C 8.538390 14.413449 2.310000
C 8.538390 16.386551 2.310000
C 9.094277 18.279727 2.310000
C 10.161016 19.939606 2.310000
C 11.652186 21.231712 2.310000
C 13.446982 22.051368 2.310000
C 15.400000 20.792169 3.850000
C 16.919150 20.573749 3.850000
C 18.315227 19.936182 3.850000
C 19.475130 18.931120 3.850000
C 20.304890 17.639988 3.850000
C 20.737285 16.167386 3.850000
C 20.737285 14.632614 3.850000
C 20.304890 13.160012 3.850000
C 19.475130 11.868880 3.850000
C 18.315227 10.863818 3.850000
C 16.919150 10.226251 3.850000
C 15.400000 10.007831 3.850000
C 13.880850 10.226251 3.850000
C 12.484773 10.863818 3.850000
C 11.324870 11.868880 3.850000
C 10.495110 13.160012 3.850000
C 10.062715 14.632614 3.850000
C 10.062715 16.167386 3.850000
C 10.495110 17.639988 3.850000
C 11.324870 18.931120 3.850000
C 12.484773 19.936182 3.850000
C 13.880850 20.573749 3.850000
C 15.400000 22.332169 3.850000
C 17.353018 22.051368 3.850000
C 19.147814 21.231712 3.850000
C 20.638984 19.939606 3.850000
C 21.705723 18.279727 3.850000
C 22.261610 16.386551 3.850000
C 22.261610 14.413449 3.850000
C 21.705723 12.520273 3.850000
C 20.638984 10.860394 3.850000
C 19.147814 9.568288 3.850000
C 17.353018 8.748632 3.850000
C 15.400000 8.467831 3.850000
C 13.446982 8.748632 3.850000
C 11.652186 9.568288 3.850000
C 10.161016 10.860394 3.850000
C 9.094277 12.520273 3.850000
C 8.538390 14.413449 3.850000
C 8.538390 16.386551 3.850000
C 9.094277 18.279727 3.850000
C 10.161016 19.939606 3.850000
C 11.652186 21.231712 3.850000
C 13.446982 22.051368 3.850000
C 15.400000 20.792169 5.390000
C 16.919150 20.573749 5.390000
C 18.315227 19.936182 5.390000
C 19.475130 18.931120 5.390000
C 20.304890 17.639988 5.390000
C 20.737285 16.167386 5.390000
C 20.737285 14.632614 5.390000
C 20.304890 13.160012 5.390000
C 19.475130 11.868880 5.390000
C 18.315227 10.863818 5.390000
C 16.919150 10.226251 5.390000
C 15.400000 10.007831 5.390000
C 13.880850 10.226251 5.390000
C 12.484773 10.863818 5.390000
C 11.324870 11.868880 5.390000
C 10.495110 13.160012 5.390000
C 10.062715 14.632614 5.390000
C 10.062715 16.167386 5.390000
C 10.495110 17.639988 5.390000
C 11.324870 18.931120 5.390000
C 12.484773 19.936182 5.390000
C 13.880850 20.573749 5.390000
C 15.400000 22.332169 5.390000
C 17.353018 22.051368 5.390000
C 19.147814 21.231712 5.390000
C 20.638984 19.939606 5.390000
C 21.705723 18.279727 5.390000
C 22.261610 16.386551 5.390000
C 22.261610 14.413449 5.390000
C 21.705723 12.520273 5.390000
C 20.638984 10.860394 5.390000
C 19.147814 9.568288 5.390000
C 17.353018 8.748632 5.390000
C 15.400000 8.467831 5.390000
C 13.446982 8.748632 5.390000
C 11.652186 9.568288 5.390000
C 10.161016 10.860394 5.390000
C 9.094277 12.520273 5.390000
C 8.538390 14.413449 5.390000
C 8.538390 16.386551 5.390000
C 9.094277 18.279727 5.390000
C 10.161016 19.939606 5.390000
C 11.652186 21.231712 5.390000
C 13.446982 22.051368 5.390000
C 15.400000 20.792169 6.930000
C 16.919150 20.573749 6.930000
C 18.315227 19.936182 6.930000
C 19.475130 18.931120 6.930000
C 20.304890 17.639988 6.930000
C 20.737285 16.167386 6.930000
C 20.737285 14.632614 6.930000
C 20.304890 13.160012 6.930000
C 19.475130 11.868880 6.930000
C 18.315227 10.863818 6.930000
C 16.919150 10.226251 6.930000
C 15.400000 10.007831 6.930000
C 13.880850 10.226251 6.930000
C 12.484773 10.863818 6.930000
C 11.324870 11.868880 6.930000
C 10.495110 13.160012 6.930000
C 10.062715 14.632614 6.930000
C 10.062715 16.167386 6.930000
C 10.495110 17.639988 6.930000
C 11.324870 18.931120 6.930000
C 12.484773 19.936182 6.930000
C 13.880850 20.573749 6.930000
C 15.400000 22.332169 6.930000
C 17.353018 22.051368 6.930000
C 19.147814 21.231712 6.930000
C 20.638984 19.939606 6.930000
C 21.705723 18.279727 6.930000
C 22.261610 16.386551 6.930000
C 22.261610 14.413449 6.930000
C 21.705723 12.520273 6.930000
C 20.638984 10.860394 6.930000
C 19.147814 9.568288 6.930000
C 17.353018 8.748632 6.930000
C 15.400000 8.467831 6.930000
C 13.446982 8.748632 6.930000
C 11.652186 9.568288 6.930000
C 10.161016 10.860394 6.930000
C 9.094277 12.520273 6.930000
C 8.538390 14.413449 6.930000
C 8.538390 16.386551 6.930000
C 9.094277 18.279727 6.930000
C 10.161016 19.939606 6.930000
C 11.652186 21.231712 6.930000
C 13.446982 22.051368 6.930000
C 15.400000 20.792169 8.470000
C 16.919150 20.573749 8.470000
C 18.315227 19.936182 8.470000
C 19.475130 18.931120 8.470000
C 20.304890 17.639988 8.470000
C 20.737285 16.167386 8.470000
C 20.737285 14.632614 8.470000
C 20.304890 13.160012 8.470000
C 19.475130 11.868880 8.470000
C 18.315227 10.863818 8.470000
C 16.919150 10.226251 8.470000
C 15.400000 10.007831 8.470000
C 13.880850 10.226251 8.470000
C 12.484773 10.863818 8.470000
C 11.324870 11.868880 8.470000
C 10.495110 13.160012 8.470000
C 10.062715 14.632614 8.470000
C 10.062715 16.167386 8.470000
C 10.495110 17.639988 8.470000
C 11.324870 18.931120 8.470000
C 12.484773 19.936182 8.470000
C 13.880850 20.573749 8.470000
C 15.400000 22.332169 8.470000
C 17.353018 22.051368 8.470000
C 19.147814 21.231712 8.470000
C 20.638984 19.939606 8.470000
C 21.705723 18.279727 8.470000
C 22.261610 16.386551 8.470000
C 22.261610 14.413449 8.470000
C 21.705723 12.520273 8.470000
C 20.638984 10.860394 8.470000
C 19.147814 9.568288 8.470000
C 17.353018 8.748632 8.470000
C 15.400000 8.467831 8.470000
C 13.446982 8.748632 8.470000
C 11.652186 9.568288 8.470000
C 10.161016 10.860394 8.470000
C 9.094277 12.520273 8.470000
C 8.538390 14.413449 8.470000
C 8.538390 16.386551 8.470000
C 9.094277 18.279727 8.470000
C 10.161016 19.939606 8.470000
C 11.652186 21.231712 8.470000
C 13.446982 22.051368 8.470000
C 15.400000 20.792169 10.010000
C 16.919150 20.573749 10.010000
C 18.315227 19.936182 10.010000
C 19.475130 18.931120 10.010000
C 20.304890 17.639988 10.010000
C 20.737285 16.167386 10.010000
C 20.737285 14.632614 10.010000
C 20.304890 13.160012 10.010000
C 19.475130 11.868880 10.010000
C 18.315227 10.863818 10.010000
C 16.919150 10.226251 10.010000
C 15.400000 10.007831 10.010000
C 13.880850 10.226251 10.010000
C 12.484773 10.863818 10.010000
C 11.324870 11.868880 10.010000
C 10.495110 13.160012 10.010000
C 10.062715 14.632614 10.010000
C 10.062715 16.167386 10.010000
C 10.495110 17.639988 10.010000
C 11.324870 18.931120 10.010000
C 12.484773 19.936182 10.010000
C 13.880850 20.573749 10.010000
C 15.400000 22.332169 10.010000
C 17.353018 22.051368 10.010000
C 19.147814 21.231712 10.010000
C 20.638984 19.939606 10.010000
C 21.705723 18.279727 10.010000
C 22.261610 16.386551 10.010000
C 22.261610 14.413449 10.010000
C 21.705723 12.520273 10.010000
C 20.638984 10.860394 10.010000
C 19.147814 9.568288 10.010000
C 17.353018 8.748632 10.010000
C 15.400000 8.467831 10.010000
C 13.446982 8.748632 10.010000
C 11.652186 9.568288 10.010000
C 10.161016 10.860394 10.010000
C 9.094277 12.520273 10.010000
C 8.538390 14.413449 10.010000
C 8.538390 16.386551 10.010000
C 9.094277 18.279727 10.010000
C 10.161016 19.939606 10.010000
C 11.652186 21.231712 10.010000
C 13.446982 22.051368 10.010000
C 15.400000 20.792169 11.550000
C 16.919150 20.573749 11.550000
C 18.315227 19.936182 11.550000
C 19.475130 18.931120 11.550000
C 20.304890 17.639988 11.550000
C 20.737285 16.167386 11.550000
C 20.737285 14.632614 11.550000
C 20.304890 13.160012 11.550000
C 19.475130 11.868880 11.550000
C 18.315227 10.863818 11.550000
C 16.919150 10.226251 11.550000
C 15.400000 10.007831 11.550000
C 13.880850 10.226251 11.550000
C 12.484773 10.863818 11.550000
C 11.324870 11.868880 11.550000
C 10.495110 13.160012 11.550000
C 10.062715 14.632614 11.550000
C 10.062715 16.167386 11.550000
C 10.495110 17.639988 11.550000
C 11.324870 18.931120 11.550000
C 12.484773 19.936182 11.550000
C 13.880850 20.573749 11.550000
C 15.400000 22.332169 11.550000
C 17.353018 22.051368 11.550000
C 19.147814 21.231712 11.550000
C 20.638984 19.939606 11.550000
C 21.705723 18.279727 11.550000
C 22.261610 16.386551 11.550000
C 22.261610 14.413449 11.550000
C 21.705723 12.520273 11.550000
C 20.638984 10.860394 11.550000
C 19.147814 9.568288 11.550000
C 17.353018 8.748632 11.550000
C 15.400000 8.467831 11.550000
C 13.446982 8.748632 11.550000
C 11.652186 9.568288 11.550000
C 10.161016 10.860394 11.550000
C 9.094277 12.520273 11.550000
C 8.538390 14.413449 11.550000
C 8.538390 16.386551 11.550000
C 9.094277 18.279727 11.550000
C 10.161016 19.939606 11.550000
C 11.652186 21.231712 11.550000
C 13.446982 22.051368 11.550000
C 15.400000 20.792169 13.090000
C 16.919150 20.573749 13.090000
C 18.315227 19.936182 13.090000
C 19.475130 18.931120 13.090000
C 20.304890 17.639988 13.090000
C 20.737285 16.167386 13.090000
C 20.737285 14.632614 13.090000
C 20.304890 13.160012 13.090000
C 19.475130 11.868880 13.090000
C 18.315227 10.863818 13.090000
C 16.919150 10.226251 13.090000
C 15.400000 10.007831 13.090000
C 13.880850 10.226251 13.090000
C 12.484773 10.863818 13.090000
C 11.324870 11.868880 13.090000
C 10.495110 13.160012 13.090000
C 10.062715 14.632614 13.090000
C 10.062715 16.167386 13.090000
C 10.495110 17.639988 13.090000
C 11.324870 18.931120 13.090000
C 12.484773 19.936182 13.090000
C 13.880850 20.573749 13.090000
C 15.400000 22.332169 13.090000
C 17.353018 22.051368 13.090000
C 19.147814 21.231712 13.090000
C 20.638984 19.939606 13.090000
C 21.705723 18.279727 13.090000
C 22.261610 16.386551 13.090000
C 22.261610 14.413449 13.090000
C 21.705723 12.520273 13.090000
C 20.638984 10.860394 13.090000
C 19.147814 9.568288 13.090000
C 17.353018 8.748632 13.090000
C 15.400000 8.467831 13.090000
C 13.446982 8.748632 13.090000
C 11.652186 9.568288 13.090000
C 10.161016 10.860394 13.090000
C 9.094277 12.520273 13.090000
C 8.538390 14.413449 13.090000
C 8.538390 16.386551 13.090000
C 9.094277 18.279727 13.090000
C 10.161016 19.939606 13.090000
C 11.652186 21.231712 13.090000
C 13.446982 22.051368 13.090000
C 15.400000 20.792169 14.630000
C 16.919150 20.573749 14.630000
C 18.315227 19.936182 14.630000
C 19.475130 18.931120 14.630000
C 20.304890 17.639988 14.630000
C 20.737285 16.167386 14.630000
C 20.737285 14.632614 14.630000
C 20.304890 13.160012 14.630000
C 19.475130 11.868880 14.630000
C 18.315227 10.863818 14.630000
C 16.919150 10.226251 14.630000
C 15.400000 10.007831 14.630000
C 13.880850 10.226251 14.630000
C 12.484773 10.863818 14.630000
C 11.324870 11.868880 14.630000
C 10.495110 13.160012 14.630000
C 10.062715 14.632614 14.630000
C 10.062715 16.167386 14.630000
C 10.495110 17.639988 14.630000
C 11.324870 18.931120 14.630000
C 12.484773 19.936182 14.630000
C 13.880850 20.573749 14.630000
C 15.400000 22.332169 14.630000
C 17.353018 22.051368 14.630000
C 19.147814 21.231712 14.630000
C 20.638984 19.939606 14.630000
C 21.705723 18.279727 14.630000
C 22.261610 16.386551 14.630000
C 22.261610 14.413449 14.630000
C 21.705723 12.520273 14.630000
C 20.638984 10.860394 14.630000
C 19.147814 9.568288 14.630000
C 17.353018 8.748632 14.630000
C 15.400000 8.467831 14.630000
C 13.446982 8.748632 14.630000
C 11.652186 9.568288 14.630000
C 10.161016 10.860394 14.630000
C 9.094277 12.520273 14.630000
C 8.538390 14.413449 14.630000
C 8.538390 16.386551 14.630000
C 9.094277 18.279727 14.630000
C 10.161016 19.939606 14.630000
C 11.652186 21.231712 14.630000
C 13.446982 22.051368 14.630000
C 15.400000 20.792169 16.170000
C 16.919150 20.573749 16.170000
C 18.315227 19.936182 16.170000
C 19.475130 18.931120 16.170000
C 20.304890 17.639988 16.170000
C 20.737285 16.167386 16.170000
C 20.737285 14.632614 16.170000
C 20.304890 13.160012 16.170000
C 19.475130 11.868880 16.170000
C 18.315227 10.863818 16.170000
C 16.919150 10.226251 16.170000
C 15.400000 10.007831 16.170000
C 13.880850 10.226251 16.170000
C 12.484773 10.863818 16.170000
C 11.324870 11.868880 16.170000
C 10.495110 13.160012 16.170000
C 10.062715 14.632614 16.170000
C 10.062715 16.167386 16.170000
C 10.495110 17.639988 16.170000
C 11.324870 18.931120 16.170000
C 12.484773 19.936182 16.170000
C 13.880850 20.573749 16.170000
C 15.400000 22.332169 16.170000
C 17.353018 22.051368 16.170000
C 19.147814 21.231712 16.170000
C 20.638984 19.939606 16.170000
C 21.705723 18.279727 16.170000
C 22.261610 16.386551 16.170000
C 22.261610 14.413449 16.170000
C 21.705723 12.520273 16.170000
C 20.638984 10.860394 16.170000
C 19.147814 9.568288 16.170000
C 17.353018 8.748632 16.170000
C 15.400000 8.467831 16.170000
C 13.446982 8.748632 16.170000
C 11.652186 9.568288 16.170000
C 10.161016 10.860394 16.170000
C 9.094277 12.520273 16.170000
C 8.538390 14.413449 16.170000
C 8.538390 16.386551 16.170000
C 9.094277 18.279727 16.170000
C 10.161016 19.939606 16.170000
C 11.652186 21.231712 16.170000
C 13.446982 22.051368 16.170000
C 15.400000 20.792169 17.710000
C 16.919150 20.573749 17.710000
C 18.315227 19.936182 17.710000
C 19.475130 18.931120 17.710000
C 20.304890 17.639988 17.710000
C 20.737285 16.167386 17.710000
C 20.737285 14.632614 17.710000
C 20.304890 13.160012 17.710000
C 19.475130 11.868880 17.710000
C 18.315227 10.863818 17.710000
C 16.919150 10.226251 17.710000
C 15.400000 10.007831 17.710000
C 13.880850 10.226251 17.710000
C 12.484773 10.863818 17.710000
C 11.324870 11.868880 17.710000
C 10.495110 13.160012 17.710000
C 10.062715 14.632614 17.710000
C 10.062715 16.167386 17.710000
C 10.495110 17.639988 17.710000
C 11.324870 18.931120 17.710000
C 12.484773 19.936182 17.710000
C 13.880850 20.573749 17.710000
C 15.400000 22.332169 17.710000
C 17.353018 22.051368 17.710000
C 19.147814 21.231712 17.710000
C 20.638984 19.939606 17.710000
C 21.705723 18.279727 17.710000
C 22.261610 16.386551 17.710000
C 22.261610 14.413449 17.710000
C 21.705723 12.520273 17.710000
C 20.638984 10.860394 17.710000
C 19.147814 9.568288 17.710000
C 17.353018 8.748632 17.710000
C 15.400000 8.467831 17.710000
C 13.446982 8.748632 17.710000
C 11.652186 9.568288 17.710000
C 10.161016 10.860394 17.710000
C 9.094277 12.520273 17.710000
C 8.538390 14.413449 17.710000
C 8.538390 16.386551 17.710000
C 9.094277 18.279727 17.710000
C 10.161016 19.939606 17.710000
C 11.652186 21.231712 17.710000
C 13.446982 22.051368 17.710000
C 15.400000 20.792169 19.250000
C 16.919150 20.573749 19.250000
C 18.315227 19.936182 19.250000
C 19.475130 18.931120 19.250000
C 20.304890 17.639988 19.250000
C 20.737285 16.167386 19.250000
C 20.737285 14.632614 19.250000
C 20.304890 13.160012 19.250000
C 19.475130 11.868880 19.250000
C 18.315227 10.863818 19.250000
C 16.919150 10.226251 19.250000
C 15.400000 10.007831 19.250000
C 13.880850 10.226251 19.250000
C 12.484773 10.863818 19.250000
C 11.324870 11.868880 19.250000
C 10.495110 13.160012 19.250000
C 10.062715 14.632614 19.250000
C 10.062715 16.167386 19.250000
C 10.495110 17.639988 19.250000
C 11.324870 18.931120 19.250000
C 12.484773 19.936182 19.250000
C 13.880850 20.573749 19.250000
C 15.400000 22.332169 19.250000
C 17.353018 22.051368 19.250000
C 19.147814 21.231712 19.250000
C 20.638984 19.939606 19.250000
C 21.705723 18.279727 19.250000
C 22.261610 16.386551 19.250000
C 22.261610 14.413449 19.250000
C 21.705723 12.520273 19.250000
C 20.638984 10.860394 19.250000
C 19.147814 9.568288 19.250000
C 17.353018 8.748632 19.250000
C 15.400000 8.467831 19.250000
C 13.446982 8.748632 19.250000
C 11.652186 9.568288 19.250000
C 10.161016 10.860394 19.250000
C 9.094277 12.520273 19.250000
C 8.538390 14.413449 19.250000
C 8.538390 16.386551 19.250000
C 9.094277 18.279727 19.250000
C 10.161016 19.939606 19.250000
C 11.652186 21.231712 19.250000
C 13.446982 22.051368 19.250000
C 15.400000 20.792169 20.790000
C 16.919150 20.573749 20.790000
C 18.315227 19.936182 20.790000
C 19.475130 18.931120 20.790000
C 20.304890 17.639988 20.790000
C 20.737285 16.167386 20.790000
C 20.737285 14.632614 20.790000
C 20.304890 13.160012 20.790000
C 19.475130 11.868880 20.790000
C 18.315227 10.863818 20.790000
C 16.919150 10.226251 20.790000
C 15.400000 10.007831 20.790000
C 13.880850 10.226251 20.790000
C 12.484773 10.863818 20.790000
C 11.324870 11.868880 20.790000
C 10.495110 13.160012 20.790000
C 10.062715 14.632614 20.790000
C 10.062715 16.167386 20.790000
C 10.495110 17.639988 20.790000
C 11.324870 18.931120 20.790000
C 12.484773 19.936182 20.790000
C 13.880850 20.573749 20.790000
C 15.400000 22.332169 20.790000
C 17.353018 22.051368 20.790000
C 19.147814 21.231712 20.790000
C 20.638984 19.939606 20.790000
C 21.705723 18.279727 20.790000
C 22.261610 16.386551 20.790000
C 22.261610 14.413449 20.790000
C 21.705723 12.520273 20.790000
C 20.638984 10.860394 20.790000
C 19.147814 9.568288 20.790000
C 17.353018 8.748632 20.790000
C 15.400000 8.467831 20.790000
C 13.446982 8.748632 20.790000
C 11.652186 9.568288 20.790000
C 10.161016 10.860394 20.790000
C 9.094277 12.520273 20.790000
C 8.538390 14.413449 20.790000
C 8.538390 16.386551 20.790000
C 9.094277 18.279727 20.790000
C 10.161016 19.939606 20.790000
C 11.652186 21.231712 20.790000
C 13.446982 22.051368 20.790000
C 15.400000 20.792169 22.330000
C 16.919150 20.573749 22.330000
C 18.315227 19.936182 22.330000
C 19.475130 18.931120 22.330000
C 20.304890 17.639988 22.330000
C 20.737285 16.167386 22.330000
C 20.737285 14.632614 22.330000
C 20.304890 13.160012 22.330000
C 19.475130 11.868880 22.330000
C 18.315227 10.863818 22.330000
C 16.919150 10.226251 22.330000
C 15.400000 10.007831 22.330000
C 13.880850 10.226251 22.330000
C 12.484773 10.863818 22.330000
C 11.324870 11.868880 22.330000
C 10.495110 13.160012 22.330000
C 10.062715 14.632614 22.330000
C 10.062715 16.167386 22.330000
C 10.495110 17.639988 22.330000
C 11.324870 18.931120 22.330000
C 12.484773 19.936182 22.330000
C 13.880850 20.573749 22.330000
C 15.400000 22.332169 22.330000
C 17.353018 22.051368 22.330000
C 19.147814 21.231712 22.330000
C 20.638984 19.939606 22.330000
C 21.705723 18.279727 22.330000
C 22.261610 16.386551 22.330000
C 22.261610 14.413449 22.330000
C 21.705723 12.520273 22.330000
C 20.638984 10.860394 22.330000
C 19.147814 9.568288 22.330000
C 17.353018 8.748632 22.330000
C 15.400000 8.467831 22.330000
C 13.446982 8.748632 22.330000
C 11.652186 9.568288 22.330000
C 10.161016 10.860394 22.330000
C 9.094277 12.520273 22.330000
C 8.538390 14.413449 22.330000
C 8.538390 16.386551 22.330000
C 9.094277 18.279727 22.330000
C 10.161016 19.939606 22.330000
C 11.652186 21.231712 22.330000
C 13.446982 22.051368 22.330000
C 15.400000 20.792169 23.870000
C 16.919150 20.573749 23.870000
C 18.315227 19.936182 23.870000
C 19.475130 18.931120 23.870000
C 20.304890 17.639988 23.870000
C 20.737285 16.167386 23.870000
C 20.737285 14.632614 23.870000
C 20.304890 13.160012 23.870000
C 19.475130 11.868880 23.870000
C 18.315227 10.863818 23.870000
C 16.919150 10.226251 23.870000
C 15.400000 10.007831 23.870000
C 13.880850 10.226251 23.870000
C 12.484773 10.863818 23.870000
C 11.324870 11.868880 23.870000
C 10.495110 13.160012 23.870000
C 10.062715 14.632614 23.870000
C 10.062715 16.167386 23.870000
C 10.495110 17.639988 23.870000
C 11.324870 18.931120 23.870000
C 12.484773 19.936182 23.870000
C 13.880850 20.573749 23.870000
C 15.400000 22.332169 23.870000
C 17.353018 22.051368 23.870000
C 19.147814 21.231712 23.870000
C 20.638984 19.939606 23.870000
C 21.705723 18.279727 23.870000
C 22.261610 16.386551 23.870000
C 22.261610 14.413449 23.870000
C 21.705723 12.520273 23.870000
C 20.638984 10.860394 23.870000
C 19.147814 9.568288 23.870000
C 17.353018 8.748632 23.870000
C 15.400000 8.467831 23.870000
C 13.446982 8.748632 23.870000
C 11.652186 9.568288 23.870000
C 10.161016 10.860394 23.870000
C 9.094277 12.520273 23.870000
C 8.538390 14.413449 23.870000
C 8.538390 16.386551 23.870000
C 9.094277 18.279727 23.870000
C 10.161016 19.939606 23.870000
C 11.652186 21.231712 23.870000
C 13.446982 22.051368 23.870000
C 15.400000 20.792169 25.410000
C 16.919150 20.573749 25.410000
C 18.315227 19.936182 25.410000
C 19.475130 18.931120 25.410000
C 20.304890 17.639988 25.410000
C 20.737285 16.167386 25.410000
C 20.737285 14.632614 25.410000
C 20.304890 13.160012 25.410000
C 19.475130 11.868880 25.410000
C 18.315227 10.863818 25.410000
C 16.919150 10.226251 25.410000
C 15.400000 10.007831 25.410000
C 13.880850 10.226251 25.410000
C 12.484773 10.863818 25.410000
C 11.324870 11.868880 25.410000
C 10.495110 13.160012 25.410000
C 10.062715 14.632614 25.410000
C 10.062715 16.167386 25.410000
C 10.495110 17.639988 25.410000
C 11.324870 18.931120 25.410000
C 12.484773 19.936182 25.410000
C 13.880850 20.573749 25.410000
C 15.400000 22.332169 25.410000
C 17.353018 22.051368 25.410000
C 19.147814 21.231712 25.410000
C 20.638984 19.939606 25.410000
C 21.705723 18.279727 25.410000
C 22.261610 16.386551 25.410000
C 22.261610 14.413449 25.410000
C 21.705723 12.520273 25.410000
C 20.638984 10.860394 25.410000
C 19.147814 9.568288 25.410000
C 17.353018 8.748632 25.410000
C 15.400000 8.467831 25.410000
C 13.446982 8.748632 25.410000
C 11.652186 9.568288 25.410000
C 10.161016 10.860394 25.410000
C 9.094277 12.520273 25.410000
C 8.538390 14.413449 25.410000
C 8.538390 16.386551 25.410000
C 9.094277 18.279727 25.410000
C 10.161016 19.939606 25.410000
C 11.652186 21.231712 25.410000
C 13.446982 22.051368 25.410000
C 15.400000 20.792169 26.950000
C 16.919150 20.573749 26.950000
C 18.315227 19.936182 26.950000
C 19.475130 18.931120 26.950000
C 20.304890 17.639988 26.950000
C 20.737285 16.167386 26.950000
C 20.737285 14.632614 26.950000
C 20.304890 13.160012 26.950000
C 19.475130 11.868880 26.950000
C 18.315227 10.863818 26.950000
C 16.919150 10.226251 26.950000
C 15.400000 10.007831 26.950000
C 13.880850 10.226251 26.950000
C 12.484773 10.863818 26.950000
C 11.324870 11.868880 26.950000
C 10.495110 13.160012 26.950000
C 10.062715 14.632614 26.950000
C 10.062715 16.167386 26.950000
C 10.495110 17.639988 26.950000
C 11.324870 18.931120 26.950000
C 12.484773 19.936182 26.950000
C 13.880850 20.573749 26.950000
C 15.400000 22.332169 26.950000
C 17.353018 22.051368 26.950000
C 19.147814 21.231712 26.950000
C 20.638984 19.939606 26.950000
C 21.705723 18.279727 26.950000
C 22.261610 16.386551 26.950000
C 22.261610 14.413449 26.950000
C 21.705723 12.520273 26.950000
C 20.638984 10.860394 26.950000
C 19.147814 9.568288 26.950000
C 17.353018 8.748632 26.950000
C 15.400000 8.467831 26.950000
C 13.446982 8.748632 26.950000
C 11.652186 9.568288 26.950000
C 10.161016 10.860394 26.950000
C 9.094277 12.520273 26.950000
C 8.538390 14.413449 26.950000
C 8.538390 16.386551 26.950000
C 9.094277 18.279727 26.950000
C 10.161016 19.939606 26.950000
C 11.652186 21.231712 26.950000
C 13.446982 22.051368 26.950000
C 15.400000 20.792169 28.490000
C 16.919150 20.573749 28.490000
C 18.315227 19.936182 28.490000
C 19.475130 18.931120 28.490000
C 20.304890 17.639988 28.490000
C 20.737285 16.167386 28.490000
C 20.737285 14.632614 28.490000
C 20.304890 13.160012 28.490000
C 19.475130 11.868880 28.490000
C 18.315227 10.863818 28.490000
C 16.919150 10.226251 28.490000
C 15.400000 10.007831 28.490000
C 13.880850 10.226251 28.490000
C 12.484773 10.863818 28.490000
C 11.324870 11.868880 28.490000
C 10.495110 13.160012 28.490000
C 10.062715 14.632614 28.490000
C 10.062715 16.167386 28.490000
C 10.495110 17.639988 28.490000
C 11.324870 18.931120 28.490000
C 12.484773 19.936182 28.490000
C 13.880850 20.573749 28.490000
C 15.400000 22.332169 28.490000
C 17.353018 22.051368 28.490000
C 19.147814 21.231712 28.490000
C 20.638984 19.939606 28.490000
C 21.705723 18.279727 28.490000
C 22.261610 16.386551 28.490000
C 22.261610 14.413449 28.490000
C 21.705723 12.520273 28.490000
C 20.638984 10.860394 28.490000
C 19.147814 9.568288 28.490000
C 17.353018 8.748632 28.490000
C 15.400000 8.467831 28.490000
C 13.446982 8.748632 28.490000
C 11.652186 9.568288 28.490000
C 10.161016 10.860394 28.490000
C 9.094277 12.520273 28.490000
C 8.538390 14.413449 28.490000
C 8.538390 16.386551 28.490000
C 9.094277 18.279727 28.490000
C 10.161016 19.939606 28.490000
C 11.652186 21.231712 28.490000
C 13.446982 22.051368 28.490000
C 15.400000 20.792169 30.030000
C 16.919150 20.573749 30.030000
C 18.315227 19.936182 30.030000
C 19.475130 18.931120 30.030000
C 20.304890 17.639988 30.030000
C 20.737285 16.167386 30.030000
C 20.737285 14.632614 30.030000
C 20.304890 13.160012 30.030000
C 19.475130 11.868880 30.030000
C 18.315227 10.863818 30.030000
C 16.919150 10.226251 30.030000
C 15.400000 10.007831 30.030000
C 13.880850 10.226251 30.030000
C 12.484773 10.863818 30.030000
C 11.324870 11.868880 30.030000
C 10.495110 13.160012 30.030000
C 10.062715 14.632614 30.030000
C 10.062715 16.167386 30.030000
C 10.495110 17.639988 30.030000
C 11.324870 18.931120 30.030000
C 12.484773 19.936182 30.030000
C 13.880850 20.573749 30.030000
C 15.400000 22.332169 30.030000
C 17.353018 22.051368 30.030000
C 19.147814 21.231712 30.030000
C 20.638984 19.939606 30.030000
C 21.705723 18.279727 30.030000
C 22.261610 16.386551 30.030000
C 22.261610 14.413449 30.030000
C 21.705723 12.520273 30.030000
C 20.638984 10.860394 30.030000
C 19.147814 9.568288 30.030000
C 17.353018 8.748632 30.030000
C 15.400000 8.467831 30.030000
C 13.446982 8.748632 30.030000
C 11.652186 9.568288 30.030000
C 10.161016 10.860394 30.030000
C 9.094277 12.520273 30.030000
C 8.538390 14.413449 30.030000
C 8.538390 16.386551 30.030000
C 9.094277 18.279727 30.030000
C 10.161016 19.939606 30.030000
C 11.652186 21.231712 30.030000
C 13.446982 22.051368 30.030000
