126
Water molecule positions in XYZ format
H 17.149306 17.143210 29.965808
H 16.124418 17.156901 28.851666
O 16.931047 16.979541 29.136024
H 16.292624 16.612511 17.473479
H 15.506153 17.739862 16.839100
O 15.666996 17.220096 17.522430
H 16.700587 13.908266 11.089939
H 16.450992 15.168733 11.890451
O 16.406225 14.299836 11.813120
H 17.328950 15.021616 14.272442
H 16.622175 16.347622 14.457030
O 17.360221 15.881863 14.420645
H 14.219194 15.383677 5.806058
H 13.707435 14.509769 4.680766
O 13.830827 14.650100 5.534024
H 14.584746 13.942596 11.670752
H 13.165326 14.021654 11.150280
O 13.769916 14.250023 11.737890
H 17.562156 16.660354 26.967522
H 17.599593 16.455160 25.468059
O 17.208266 16.332604 26.239299
H 13.248573 15.737733 21.441316
H 14.032489 14.758842 20.593292
O 13.594400 15.510397 20.672102
H 13.508042 14.440530 7.638023
H 14.499302 13.812465 8.594493
O 13.786300 14.296925 8.453448
H 13.165722 14.750618 14.401560
H 13.361179 15.218615 15.827978
O 13.693434 15.009372 15.047728
H 17.782976 16.053561 9.995830
H 16.481044 16.207167 9.238681
O 17.255703 15.816764 9.340943
H 13.888620 15.913834 23.470050
H 13.247183 14.784433 24.247807
O 13.389533 15.197296 23.491337
H 13.907380 15.614530 26.093766
H 14.831950 14.418065 26.168178
O 14.027887 14.756979 26.208006
H 16.994771 13.809257 28.053474
H 17.018488 15.171931 28.712603
O 16.992499 14.301093 28.775318
H 15.423233 13.404346 2.589267
H 16.884219 13.597898 2.242926
O 16.264021 13.402043 2.825989
H 14.918134 17.905558 13.835453
H 14.516018 16.702083 14.661193
O 15.081702 17.343572 14.483824
H 14.960117 17.361590 5.484807
H 15.788069 16.532237 6.443224
O 15.026635 16.899129 6.222826
H 14.806577 13.851877 23.310719
H 15.841388 13.179836 22.433551
O 15.596504 13.492515 23.211517
H 16.005404 13.784760 19.977914
H 15.225531 12.554347 19.565876
O 15.438033 13.148871 20.169491
H 14.099582 17.508257 27.529227
H 13.826684 16.415447 28.540755
O 14.117559 17.217300 28.352627
H 18.004896 15.286833 19.672398
H 16.744695 15.939109 20.199964
O 17.450029 15.440366 20.329298
H 17.130570 14.372179 17.260984
H 17.834667 15.506712 16.547557
O 17.519012 15.154258 17.281795
H 14.541944 16.082711 2.732134
H 13.472471 16.484014 3.725653
O 13.743487 15.975058 3.069543
H 16.788715 14.868334 23.457216
H 17.521942 15.622229 22.368218
O 17.339659 15.500934 23.213811
H 14.484585 14.477846 29.346408
H 13.702235 14.417318 28.051743
O 13.733043 14.570799 28.911081
H 15.347780 17.850791 22.520528
H 15.863475 16.856424 23.538952
O 15.247164 17.414034 23.270253
H 14.632527 16.930673 20.317458
H 15.546972 17.755083 19.436530
O 15.281361 17.509106 20.231460
H 15.876963 17.215271 0.810750
H 17.011867 16.217939 0.714748
O 16.731762 17.044283 0.755535
H 14.026403 16.210726 17.634620
H 13.043047 15.372381 18.423343
O 13.303435 15.721557 17.666216
H 18.050622 15.850034 6.290072
H 16.898213 14.975165 5.844593
O 17.315643 15.742316 5.830540
H 16.488154 12.888185 25.646349
H 17.001630 14.258463 26.034390
O 16.579511 13.522019 26.240383
H 15.303894 12.926132 16.608936
H 14.349475 13.903093 17.262026
O 14.952524 13.274716 17.328656
H 16.200005 13.474426 13.541726
H 15.365079 13.961118 14.707025
O 16.040113 13.499511 14.400080
H 16.511639 16.441869 3.986837
H 16.588433 17.052541 2.603697
O 16.159072 16.930586 3.354525
H 17.010113 14.301539 0.015115
H 18.241603 14.933042 0.628735
O 17.459385 14.555177 0.719948
H 17.130719 17.091046 12.652780
H 15.839066 17.158408 11.866020
O 16.683283 16.940296 11.917904
H 13.766579 16.202821 11.739753
H 14.137128 17.314840 10.781629
O 13.924952 17.047916 11.585806
H 14.025823 16.042844 9.208444
H 14.483259 17.072658 8.197439
O 14.512651 16.738669 9.004009
H 15.286895 13.619047 5.843734
H 16.281401 13.321402 4.741799
O 16.110674 13.496761 5.580290
H 13.943032 12.457735 1.926198
H 14.242638 12.592129 0.448339
O 14.066435 12.958677 1.221360
H 16.498460 14.133967 8.939871
H 16.478710 13.043014 7.890430
O 16.266007 13.330778 8.687246
H 15.271800 17.093508 25.955756
H 14.335764 17.724514 24.947012
O 14.476981 17.383528 25.738690
