1125
Converted to XYZ format (including framework carbon atoms, lone pairs ignored)
H 12.985962468859 16.005047602190 24.851605133695
H 13.956773616921 16.618899259543 25.837813554343
O 13.267410860253 16.108760170566 25.671969481436
H 16.112258816903 17.342462243224 28.705887129556
H 14.742739566592 17.291939886094 28.062645568516
O 15.372033555712 17.741143261471 28.469059839563
H 14.358932283625 17.691953640502 2.184129347642
H 13.833333144420 16.655551338131 3.154444246992
O 14.398815027672 17.292168814865 2.959725000557
H 14.572595155816 12.734148732644 6.775142923354
H 13.928229639866 13.778143662361 5.888146384482
O 14.459843315903 13.092064471788 5.986377747163
H 13.178297067867 16.432560448611 5.532358704066
H 12.561023325998 15.137163196630 5.049850384392
O 12.811495418028 15.658689375047 5.704251892063
H 13.331813551066 14.076691148418 3.131351525120
H 12.544195052268 14.987586175055 2.213842646584
O 12.886101591100 14.816168408680 2.999134328048
H 16.170137237248 17.139675666791 8.626880304012
H 17.361517255788 16.855864356007 9.516801639123
O 16.934798453958 16.740174704925 8.763479579378
H 13.724867859365 17.240841916824 30.906400531127
H 14.706462838992 18.204920197394 30.274799742418
O 14.317958704742 17.877239825670 30.985192076667
H 17.105904559275 14.714408616588 8.937887092976
H 17.545638969916 13.515711367614 9.751308106224
O 17.208040553566 13.850688520930 9.018652134477
H 16.246390374723 17.459400378963 25.746820693057
H 15.427370242367 18.522360067763 26.447690091858
O 15.592461826491 18.038443539565 25.739497519537
H 14.078401482735 16.727166641018 8.293948530842
H 14.563004085179 17.858541505226 7.412446162306
O 14.527138496998 17.469853577016 8.193856752809
H 17.911771671611 16.032310811760 19.999286843386
H 18.213569300840 16.517475283367 18.597349320572
O 17.842167570358 16.642344489714 19.378012879862
H 14.429197283680 13.577264108768 19.189376331062
H 14.244073445671 13.804949735047 20.674564403859
O 14.590785543255 14.044511535842 19.909470931210
H 14.870342703214 13.212173302512 22.341559101212
H 13.720697886873 14.163097839452 22.598375207984
O 14.021808291172 13.349472710083 22.496818178768
H 13.735360194469 13.807179751680 8.672118519792
H 15.237376209745 13.618061001620 8.663333326406
O 14.431858843022 13.280709531391 8.645928891799
H 17.007986175104 12.768454831129 26.027395790348
H 15.759028335985 13.304935092986 25.360921157573
O 16.627230650105 13.309106416090 25.456704761188
H 15.848132577379 18.127810123475 5.779651114204
H 14.768148599262 17.947515706005 4.734173366267
O 15.043344018247 17.869343015237 5.559475534378
H 17.212350414902 14.705367169668 3.049935269310
H 17.277282561086 13.560459216881 4.038299972963
O 17.137317082925 13.853402418870 3.227398559576
H 17.507772275511 16.195058510900 26.905282902808
H 17.222476911020 15.053944912664 25.952202894461
O 17.177146360487 15.903221819596 26.151303455591
H 17.443252423409 16.384334747835 12.405774822688
H 18.679607330848 16.455833103257 11.535022435718
O 17.820726900017 16.321761644344 11.620558430137
H 18.084095864402 16.647367312024 29.493900808661
H 17.694667128606 15.484053497410 28.606803621282
O 17.864992202510 16.334736763356 28.708265471951
H 17.593171586314 16.331062231970 6.949057482830
H 17.749748455659 15.073993241499 6.120108492496
O 17.667232048589 15.942107155853 6.170471486556
H 13.615485924002 17.004424206957 11.478473190870
H 13.912979753293 17.873611829863 10.275183745594
O 13.965596098498 17.727051525647 11.134671240760
H 17.576059470910 13.771682428504 20.814536126003
H 16.354976055157 13.683483181069 19.923990576400
O 17.222611954654 13.721747091753 20.017323185630
H 17.253621250129 14.547942545268 22.579455448441
H 16.911604351586 13.535459029448 23.651741213849
O 16.919947584541 13.774851852664 22.811747985568
H 13.222560765566 15.279776070634 27.249415708034
H 13.932992519995 14.184404771650 28.015799183231
O 13.478108506812 14.930049371427 28.007936468929
H 17.726940082148 13.381572002614 6.821606952883
H 16.452099229955 13.436412996444 6.006948461018
O 17.324599931276 13.437016685854 6.048292368125
H 16.521790700781 17.900280757031 16.813066458678
H 17.904791644650 18.377911269506 16.424385774565
O 17.340585069217 17.725844392092 16.563837861390
H 14.551278614698 18.478895561861 16.340833071772
H 14.030587236684 17.311371930624 17.151798083815
O 14.610418509180 17.954448406386 17.036839401411
H 13.461996616086 14.368895235992 11.507498166926
H 12.924105505427 15.285522245064 12.585627691012
O 12.980545462367 15.058226275072 11.744130079496
H 14.401398671522 12.320678433562 -3.319450187071
H 14.487383721894 12.480294745909 -1.816445065543
O 14.786042893993 12.666905323583 -2.615786261857
H 16.485505096246 13.483629601045 28.167002543834
H 17.472899679255 13.599471516029 29.308723954499
O 17.280437419007 13.693562548863 28.461922730584
H 12.263062811896 15.516384808601 -0.699240060238
H 13.372848399065 14.890197690634 0.118170996206
O 12.727127007087 15.473140577431 0.039503140146
H 17.662188846054 14.539554865081 11.707982470804
H 17.543352666092 13.408362030518 12.707070016897
O 17.465407029748 13.708314025627 11.890418049834
H 16.250821432333 17.500348429342 31.390737930252
H 17.374225232784 17.039396190673 32.294829809538
O 17.037214894563 17.134616976240 31.494627215922
H 17.560409737268 16.496623142648 4.149640302630
H 16.305664052427 16.863985537816 3.386388490721
O 17.136760563275 16.595262069039 3.392171559725
H 14.484752725049 13.036511811344 13.332440457773
H 15.632439978510 13.205117097298 14.305210429134
O 14.778824295577 13.100375973374 14.152446821844
H 14.665019423090 13.516985576291 16.650396537732
H 13.924302719669 12.254912193546 17.038217028722
O 14.090111263228 13.103560205957 17.161793866421
H 16.765627448861 13.684255771661 17.917222396334
H 17.086377260333 15.103430959812 17.498944336703
O 16.757674481701 14.315647194260 17.313692133063
H 13.514624320293 13.880096996360 25.706218600255
H 13.755515016400 12.978740152869 24.513984267326
O 13.959506412217 13.232530463104 25.324505794348
H 12.143925019812 15.331929994732 9.124620959660
H 12.588097399640 15.612153731457 7.704733377573
O 12.779332883503 15.393141730860 8.528401933612
H 16.192146870394 17.686940237700 19.927526393687
H 15.418334994872 18.307503798910 18.783843203642
O 15.591847393596 18.251593467196 19.638088273396
H 15.975261063979 16.822640271707 13.960302715946
H 17.209264451981 16.732529997136 14.832662141992
O 16.760756491630 16.479017252615 14.127297658360
H 13.828933455367 16.840114045046 22.959050975491
H 12.674492393450 16.463485390793 22.054997944553
O 13.091974582099 16.392635982073 22.818971857947
H 17.004187278849 16.542956103817 22.493157892978
H 18.446784647037 16.477095830591 22.947548087746
O 17.823487491730 16.264686355101 22.373657830109
H 15.628985624417 18.287974680611 22.293311269371
H 15.332798683595 18.003200633055 23.750387873163
O 15.463855714833 17.718790884054 22.934972453798
H 16.414291663252 14.313566691065 1.255144699948
H 16.672244984075 15.467938232861 0.310273481653
O 16.470882841015 14.628302774717 0.442306589898
H 14.511643844099 12.783764344836 10.557668954561
H 15.604004416771 13.058466600575 11.569193665755
O 14.756160463845 12.991494092574 11.370089493122
H 14.081894207257 17.181548778178 20.098908039907
H 13.941386314288 15.683310463939 19.933273873287
O 13.577897934565 16.470962747969 20.035485585783
H 17.303786472454 14.466957229239 14.146760428945
H 17.594132107282 13.710726611809 15.425709160127
O 17.327528250974 13.716997601913 14.593933820635
H 12.426275995241 15.399463880941 15.174953141079
H 13.484330688253 14.591128056528 14.454530589405
O 12.909708135737 15.248928182329 14.463195088169
H 15.346953116640 13.334794176458 2.917445985389
H 14.539273735874 12.515702595005 3.901640168702
O 14.633553115996 12.868204067020 3.108027374191
H 12.880185292180 16.079716534323 18.303987088505
H 13.000433133518 15.107455552168 17.149801561552
O 12.867865950575 15.918567492397 17.445589525012
H 14.053173627255 17.958440586287 13.051546763467
H 13.806642116863 16.804862382059 14.000427542337
O 14.237194166180 17.536206583723 13.793720628027
H 14.876005529679 13.558533556689 0.041428239276
H 14.027861555211 12.628482622040 0.882589489527
O 14.163025301594 13.063071105832 0.137048901550
C 15.400000 21.282367 0.770000
C 16.922469 21.081930 0.770000
C 18.341183 20.494279 0.770000
C 19.559461 19.559461 0.770000
C 20.494279 18.341183 0.770000
C 21.081930 16.922469 0.770000
C 21.282367 15.400000 0.770000
C 21.081930 13.877531 0.770000
C 20.494279 12.458817 0.770000
C 19.559461 11.240539 0.770000
C 18.341183 10.305721 0.770000
C 16.922469 9.718070 0.770000
C 15.400000 9.517633 0.770000
C 13.877531 9.718070 0.770000
C 12.458817 10.305721 0.770000
C 11.240539 11.240539 0.770000
C 10.305721 12.458817 0.770000
C 9.718070 13.877531 0.770000
C 9.517633 15.400000 0.770000
C 9.718070 16.922469 0.770000
C 10.305721 18.341183 0.770000
C 11.240539 19.559461 0.770000
C 12.458817 20.494279 0.770000
C 13.877531 21.081930 0.770000
C 15.400000 22.822367 0.770000
C 17.321050 22.569456 0.770000
C 19.111183 21.827958 0.770000
C 20.648406 20.648406 0.770000
C 21.827958 19.111183 0.770000
C 22.569456 17.321050 0.770000
C 22.822367 15.400000 0.770000
C 22.569456 13.478950 0.770000
C 21.827958 11.688817 0.770000
C 20.648406 10.151594 0.770000
C 19.111183 8.972042 0.770000
C 17.321050 8.230544 0.770000
C 15.400000 7.977633 0.770000
C 13.478950 8.230544 0.770000
C 11.688817 8.972042 0.770000
C 10.151594 10.151594 0.770000
C 8.972042 11.688817 0.770000
C 8.230544 13.478950 0.770000
C 7.977633 15.400000 0.770000
C 8.230544 17.321050 0.770000
C 8.972042 19.111183 0.770000
C 10.151594 20.648406 0.770000
C 11.688817 21.827958 0.770000
C 13.478950 22.569456 0.770000
C 15.400000 21.282367 2.310000
C 16.922469 21.081930 2.310000
C 18.341183 20.494279 2.310000
C 19.559461 19.559461 2.310000
C 20.494279 18.341183 2.310000
C 21.081930 16.922469 2.310000
C 21.282367 15.400000 2.310000
C 21.081930 13.877531 2.310000
C 20.494279 12.458817 2.310000
C 19.559461 11.240539 2.310000
C 18.341183 10.305721 2.310000
C 16.922469 9.718070 2.310000
C 15.400000 9.517633 2.310000
C 13.877531 9.718070 2.310000
C 12.458817 10.305721 2.310000
C 11.240539 11.240539 2.310000
C 10.305721 12.458817 2.310000
C 9.718070 13.877531 2.310000
C 9.517633 15.400000 2.310000
C 9.718070 16.922469 2.310000
C 10.305721 18.341183 2.310000
C 11.240539 19.559461 2.310000
C 12.458817 20.494279 2.310000
C 13.877531 21.081930 2.310000
C 15.400000 22.822367 2.310000
C 17.321050 22.569456 2.310000
C 19.111183 21.827958 2.310000
C 20.648406 20.648406 2.310000
C 21.827958 19.111183 2.310000
C 22.569456 17.321050 2.310000
C 22.822367 15.400000 2.310000
C 22.569456 13.478950 2.310000
C 21.827958 11.688817 2.310000
C 20.648406 10.151594 2.310000
C 19.111183 8.972042 2.310000
C 17.321050 8.230544 2.310000
C 15.400000 7.977633 2.310000
C 13.478950 8.230544 2.310000
C 11.688817 8.972042 2.310000
C 10.151594 10.151594 2.310000
C 8.972042 11.688817 2.310000
C 8.230544 13.478950 2.310000
C 7.977633 15.400000 2.310000
C 8.230544 17.321050 2.310000
C 8.972042 19.111183 2.310000
C 10.151594 20.648406 2.310000
C 11.688817 21.827958 2.310000
C 13.478950 22.569456 2.310000
C 15.400000 21.282367 3.850000
C 16.922469 21.081930 3.850000
C 18.341183 20.494279 3.850000
C 19.559461 19.559461 3.850000
C 20.494279 18.341183 3.850000
C 21.081930 16.922469 3.850000
C 21.282367 15.400000 3.850000
C 21.081930 13.877531 3.850000
C 20.494279 12.458817 3.850000
C 19.559461 11.240539 3.850000
C 18.341183 10.305721 3.850000
C 16.922469 9.718070 3.850000
C 15.400000 9.517633 3.850000
C 13.877531 9.718070 3.850000
C 12.458817 10.305721 3.850000
C 11.240539 11.240539 3.850000
C 10.305721 12.458817 3.850000
C 9.718070 13.877531 3.850000
C 9.517633 15.400000 3.850000
C 9.718070 16.922469 3.850000
C 10.305721 18.341183 3.850000
C 11.240539 19.559461 3.850000
C 12.458817 20.494279 3.850000
C 13.877531 21.081930 3.850000
C 15.400000 22.822367 3.850000
C 17.321050 22.569456 3.850000
C 19.111183 21.827958 3.850000
C 20.648406 20.648406 3.850000
C 21.827958 19.111183 3.850000
C 22.569456 17.321050 3.850000
C 22.822367 15.400000 3.850000
C 22.569456 13.478950 3.850000
C 21.827958 11.688817 3.850000
C 20.648406 10.151594 3.850000
C 19.111183 8.972042 3.850000
C 17.321050 8.230544 3.850000
C 15.400000 7.977633 3.850000
C 13.478950 8.230544 3.850000
C 11.688817 8.972042 3.850000
C 10.151594 10.151594 3.850000
C 8.972042 11.688817 3.850000
C 8.230544 13.478950 3.850000
C 7.977633 15.400000 3.850000
C 8.230544 17.321050 3.850000
C 8.972042 19.111183 3.850000
C 10.151594 20.648406 3.850000
C 11.688817 21.827958 3.850000
C 13.478950 22.569456 3.850000
C 15.400000 21.282367 5.390000
C 16.922469 21.081930 5.390000
C 18.341183 20.494279 5.390000
C 19.559461 19.559461 5.390000
C 20.494279 18.341183 5.390000
C 21.081930 16.922469 5.390000
C 21.282367 15.400000 5.390000
C 21.081930 13.877531 5.390000
C 20.494279 12.458817 5.390000
C 19.559461 11.240539 5.390000
C 18.341183 10.305721 5.390000
C 16.922469 9.718070 5.390000
C 15.400000 9.517633 5.390000
C 13.877531 9.718070 5.390000
C 12.458817 10.305721 5.390000
C 11.240539 11.240539 5.390000
C 10.305721 12.458817 5.390000
C 9.718070 13.877531 5.390000
C 9.517633 15.400000 5.390000
C 9.718070 16.922469 5.390000
C 10.305721 18.341183 5.390000
C 11.240539 19.559461 5.390000
C 12.458817 20.494279 5.390000
C 13.877531 21.081930 5.390000
C 15.400000 22.822367 5.390000
C 17.321050 22.569456 5.390000
C 19.111183 21.827958 5.390000
C 20.648406 20.648406 5.390000
C 21.827958 19.111183 5.390000
C 22.569456 17.321050 5.390000
C 22.822367 15.400000 5.390000
C 22.569456 13.478950 5.390000
C 21.827958 11.688817 5.390000
C 20.648406 10.151594 5.390000
C 19.111183 8.972042 5.390000
C 17.321050 8.230544 5.390000
C 15.400000 7.977633 5.390000
C 13.478950 8.230544 5.390000
C 11.688817 8.972042 5.390000
C 10.151594 10.151594 5.390000
C 8.972042 11.688817 5.390000
C 8.230544 13.478950 5.390000
C 7.977633 15.400000 5.390000
C 8.230544 17.321050 5.390000
C 8.972042 19.111183 5.390000
C 10.151594 20.648406 5.390000
C 11.688817 21.827958 5.390000
C 13.478950 22.569456 5.390000
C 15.400000 21.282367 6.930000
C 16.922469 21.081930 6.930000
C 18.341183 20.494279 6.930000
C 19.559461 19.559461 6.930000
C 20.494279 18.341183 6.930000
C 21.081930 16.922469 6.930000
C 21.282367 15.400000 6.930000
C 21.081930 13.877531 6.930000
C 20.494279 12.458817 6.930000
C 19.559461 11.240539 6.930000
C 18.341183 10.305721 6.930000
C 16.922469 9.718070 6.930000
C 15.400000 9.517633 6.930000
C 13.877531 9.718070 6.930000
C 12.458817 10.305721 6.930000
C 11.240539 11.240539 6.930000
C 10.305721 12.458817 6.930000
C 9.718070 13.877531 6.930000
C 9.517633 15.400000 6.930000
C 9.718070 16.922469 6.930000
C 10.305721 18.341183 6.930000
C 11.240539 19.559461 6.930000
C 12.458817 20.494279 6.930000
C 13.877531 21.081930 6.930000
C 15.400000 22.822367 6.930000
C 17.321050 22.569456 6.930000
C 19.111183 21.827958 6.930000
C 20.648406 20.648406 6.930000
C 21.827958 19.111183 6.930000
C 22.569456 17.321050 6.930000
C 22.822367 15.400000 6.930000
C 22.569456 13.478950 6.930000
C 21.827958 11.688817 6.930000
C 20.648406 10.151594 6.930000
C 19.111183 8.972042 6.930000
C 17.321050 8.230544 6.930000
C 15.400000 7.977633 6.930000
C 13.478950 8.230544 6.930000
C 11.688817 8.972042 6.930000
C 10.151594 10.151594 6.930000
C 8.972042 11.688817 6.930000
C 8.230544 13.478950 6.930000
C 7.977633 15.400000 6.930000
C 8.230544 17.321050 6.930000
C 8.972042 19.111183 6.930000
C 10.151594 20.648406 6.930000
C 11.688817 21.827958 6.930000
C 13.478950 22.569456 6.930000
C 15.400000 21.282367 8.470000
C 16.922469 21.081930 8.470000
C 18.341183 20.494279 8.470000
C 19.559461 19.559461 8.470000
C 20.494279 18.341183 8.470000
C 21.081930 16.922469 8.470000
C 21.282367 15.400000 8.470000
C 21.081930 13.877531 8.470000
C 20.494279 12.458817 8.470000
C 19.559461 11.240539 8.470000
C 18.341183 10.305721 8.470000
C 16.922469 9.718070 8.470000
C 15.400000 9.517633 8.470000
C 13.877531 9.718070 8.470000
C 12.458817 10.305721 8.470000
C 11.240539 11.240539 8.470000
C 10.305721 12.458817 8.470000
C 9.718070 13.877531 8.470000
C 9.517633 15.400000 8.470000
C 9.718070 16.922469 8.470000
C 10.305721 18.341183 8.470000
C 11.240539 19.559461 8.470000
C 12.458817 20.494279 8.470000
C 13.877531 21.081930 8.470000
C 15.400000 22.822367 8.470000
C 17.321050 22.569456 8.470000
C 19.111183 21.827958 8.470000
C 20.648406 20.648406 8.470000
C 21.827958 19.111183 8.470000
C 22.569456 17.321050 8.470000
C 22.822367 15.400000 8.470000
C 22.569456 13.478950 8.470000
C 21.827958 11.688817 8.470000
C 20.648406 10.151594 8.470000
C 19.111183 8.972042 8.470000
C 17.321050 8.230544 8.470000
C 15.400000 7.977633 8.470000
C 13.478950 8.230544 8.470000
C 11.688817 8.972042 8.470000
C 10.151594 10.151594 8.470000
C 8.972042 11.688817 8.470000
C 8.230544 13.478950 8.470000
C 7.977633 15.400000 8.470000
C 8.230544 17.321050 8.470000
C 8.972042 19.111183 8.470000
C 10.151594 20.648406 8.470000
C 11.688817 21.827958 8.470000
C 13.478950 22.569456 8.470000
C 15.400000 21.282367 10.010000
C 16.922469 21.081930 10.010000
C 18.341183 20.494279 10.010000
C 19.559461 19.559461 10.010000
C 20.494279 18.341183 10.010000
C 21.081930 16.922469 10.010000
C 21.282367 15.400000 10.010000
C 21.081930 13.877531 10.010000
C 20.494279 12.458817 10.010000
C 19.559461 11.240539 10.010000
C 18.341183 10.305721 10.010000
C 16.922469 9.718070 10.010000
C 15.400000 9.517633 10.010000
C 13.877531 9.718070 10.010000
C 12.458817 10.305721 10.010000
C 11.240539 11.240539 10.010000
C 10.305721 12.458817 10.010000
C 9.718070 13.877531 10.010000
C 9.517633 15.400000 10.010000
C 9.718070 16.922469 10.010000
C 10.305721 18.341183 10.010000
C 11.240539 19.559461 10.010000
C 12.458817 20.494279 10.010000
C 13.877531 21.081930 10.010000
C 15.400000 22.822367 10.010000
C 17.321050 22.569456 10.010000
C 19.111183 21.827958 10.010000
C 20.648406 20.648406 10.010000
C 21.827958 19.111183 10.010000
C 22.569456 17.321050 10.010000
C 22.822367 15.400000 10.010000
C 22.569456 13.478950 10.010000
C 21.827958 11.688817 10.010000
C 20.648406 10.151594 10.010000
C 19.111183 8.972042 10.010000
C 17.321050 8.230544 10.010000
C 15.400000 7.977633 10.010000
C 13.478950 8.230544 10.010000
C 11.688817 8.972042 10.010000
C 10.151594 10.151594 10.010000
C 8.972042 11.688817 10.010000
C 8.230544 13.478950 10.010000
C 7.977633 15.400000 10.010000
C 8.230544 17.321050 10.010000
C 8.972042 19.111183 10.010000
C 10.151594 20.648406 10.010000
C 11.688817 21.827958 10.010000
C 13.478950 22.569456 10.010000
C 15.400000 21.282367 11.550000
C 16.922469 21.081930 11.550000
C 18.341183 20.494279 11.550000
C 19.559461 19.559461 11.550000
C 20.494279 18.341183 11.550000
C 21.081930 16.922469 11.550000
C 21.282367 15.400000 11.550000
C 21.081930 13.877531 11.550000
C 20.494279 12.458817 11.550000
C 19.559461 11.240539 11.550000
C 18.341183 10.305721 11.550000
C 16.922469 9.718070 11.550000
C 15.400000 9.517633 11.550000
C 13.877531 9.718070 11.550000
C 12.458817 10.305721 11.550000
C 11.240539 11.240539 11.550000
C 10.305721 12.458817 11.550000
C 9.718070 13.877531 11.550000
C 9.517633 15.400000 11.550000
C 9.718070 16.922469 11.550000
C 10.305721 18.341183 11.550000
C 11.240539 19.559461 11.550000
C 12.458817 20.494279 11.550000
C 13.877531 21.081930 11.550000
C 15.400000 22.822367 11.550000
C 17.321050 22.569456 11.550000
C 19.111183 21.827958 11.550000
C 20.648406 20.648406 11.550000
C 21.827958 19.111183 11.550000
C 22.569456 17.321050 11.550000
C 22.822367 15.400000 11.550000
C 22.569456 13.478950 11.550000
C 21.827958 11.688817 11.550000
C 20.648406 10.151594 11.550000
C 19.111183 8.972042 11.550000
C 17.321050 8.230544 11.550000
C 15.400000 7.977633 11.550000
C 13.478950 8.230544 11.550000
C 11.688817 8.972042 11.550000
C 10.151594 10.151594 11.550000
C 8.972042 11.688817 11.550000
C 8.230544 13.478950 11.550000
C 7.977633 15.400000 11.550000
C 8.230544 17.321050 11.550000
C 8.972042 19.111183 11.550000
C 10.151594 20.648406 11.550000
C 11.688817 21.827958 11.550000
C 13.478950 22.569456 11.550000
C 15.400000 21.282367 13.090000
C 16.922469 21.081930 13.090000
C 18.341183 20.494279 13.090000
C 19.559461 19.559461 13.090000
C 20.494279 18.341183 13.090000
C 21.081930 16.922469 13.090000
C 21.282367 15.400000 13.090000
C 21.081930 13.877531 13.090000
C 20.494279 12.458817 13.090000
C 19.559461 11.240539 13.090000
C 18.341183 10.305721 13.090000
C 16.922469 9.718070 13.090000
C 15.400000 9.517633 13.090000
C 13.877531 9.718070 13.090000
C 12.458817 10.305721 13.090000
C 11.240539 11.240539 13.090000
C 10.305721 12.458817 13.090000
C 9.718070 13.877531 13.090000
C 9.517633 15.400000 13.090000
C 9.718070 16.922469 13.090000
C 10.305721 18.341183 13.090000
C 11.240539 19.559461 13.090000
C 12.458817 20.494279 13.090000
C 13.877531 21.081930 13.090000
C 15.400000 22.822367 13.090000
C 17.321050 22.569456 13.090000
C 19.111183 21.827958 13.090000
C 20.648406 20.648406 13.090000
C 21.827958 19.111183 13.090000
C 22.569456 17.321050 13.090000
C 22.822367 15.400000 13.090000
C 22.569456 13.478950 13.090000
C 21.827958 11.688817 13.090000
C 20.648406 10.151594 13.090000
C 19.111183 8.972042 13.090000
C 17.321050 8.230544 13.090000
C 15.400000 7.977633 13.090000
C 13.478950 8.230544 13.090000
C 11.688817 8.972042 13.090000
C 10.151594 10.151594 13.090000
C 8.972042 11.688817 13.090000
C 8.230544 13.478950 13.090000
C 7.977633 15.400000 13.090000
C 8.230544 17.321050 13.090000
C 8.972042 19.111183 13.090000
C 10.151594 20.648406 13.090000
C 11.688817 21.827958 13.090000
C 13.478950 22.569456 13.090000
C 15.400000 21.282367 14.630000
C 16.922469 21.081930 14.630000
C 18.341183 20.494279 14.630000
C 19.559461 19.559461 14.630000
C 20.494279 18.341183 14.630000
C 21.081930 16.922469 14.630000
C 21.282367 15.400000 14.630000
C 21.081930 13.877531 14.630000
C 20.494279 12.458817 14.630000
C 19.559461 11.240539 14.630000
C 18.341183 10.305721 14.630000
C 16.922469 9.718070 14.630000
C 15.400000 9.517633 14.630000
C 13.877531 9.718070 14.630000
C 12.458817 10.305721 14.630000
C 11.240539 11.240539 14.630000
C 10.305721 12.458817 14.630000
C 9.718070 13.877531 14.630000
C 9.517633 15.400000 14.630000
C 9.718070 16.922469 14.630000
C 10.305721 18.341183 14.630000
C 11.240539 19.559461 14.630000
C 12.458817 20.494279 14.630000
C 13.877531 21.081930 14.630000
C 15.400000 22.822367 14.630000
C 17.321050 22.569456 14.630000
C 19.111183 21.827958 14.630000
C 20.648406 20.648406 14.630000
C 21.827958 19.111183 14.630000
C 22.569456 17.321050 14.630000
C 22.822367 15.400000 14.630000
C 22.569456 13.478950 14.630000
C 21.827958 11.688817 14.630000
C 20.648406 10.151594 14.630000
C 19.111183 8.972042 14.630000
C 17.321050 8.230544 14.630000
C 15.400000 7.977633 14.630000
C 13.478950 8.230544 14.630000
C 11.688817 8.972042 14.630000
C 10.151594 10.151594 14.630000
C 8.972042 11.688817 14.630000
C 8.230544 13.478950 14.630000
C 7.977633 15.400000 14.630000
C 8.230544 17.321050 14.630000
C 8.972042 19.111183 14.630000
C 10.151594 20.648406 14.630000
C 11.688817 21.827958 14.630000
C 13.478950 22.569456 14.630000
C 15.400000 21.282367 16.170000
C 16.922469 21.081930 16.170000
C 18.341183 20.494279 16.170000
C 19.559461 19.559461 16.170000
C 20.494279 18.341183 16.170000
C 21.081930 16.922469 16.170000
C 21.282367 15.400000 16.170000
C 21.081930 13.877531 16.170000
C 20.494279 12.458817 16.170000
C 19.559461 11.240539 16.170000
C 18.341183 10.305721 16.170000
C 16.922469 9.718070 16.170000
C 15.400000 9.517633 16.170000
C 13.877531 9.718070 16.170000
C 12.458817 10.305721 16.170000
C 11.240539 11.240539 16.170000
C 10.305721 12.458817 16.170000
C 9.718070 13.877531 16.170000
C 9.517633 15.400000 16.170000
C 9.718070 16.922469 16.170000
C 10.305721 18.341183 16.170000
C 11.240539 19.559461 16.170000
C 12.458817 20.494279 16.170000
C 13.877531 21.081930 16.170000
C 15.400000 22.822367 16.170000
C 17.321050 22.569456 16.170000
C 19.111183 21.827958 16.170000
C 20.648406 20.648406 16.170000
C 21.827958 19.111183 16.170000
C 22.569456 17.321050 16.170000
C 22.822367 15.400000 16.170000
C 22.569456 13.478950 16.170000
C 21.827958 11.688817 16.170000
C 20.648406 10.151594 16.170000
C 19.111183 8.972042 16.170000
C 17.321050 8.230544 16.170000
C 15.400000 7.977633 16.170000
C 13.478950 8.230544 16.170000
C 11.688817 8.972042 16.170000
C 10.151594 10.151594 16.170000
C 8.972042 11.688817 16.170000
C 8.230544 13.478950 16.170000
C 7.977633 15.400000 16.170000
C 8.230544 17.321050 16.170000
C 8.972042 19.111183 16.170000
C 10.151594 20.648406 16.170000
C 11.688817 21.827958 16.170000
C 13.478950 22.569456 16.170000
C 15.400000 21.282367 17.710000
C 16.922469 21.081930 17.710000
C 18.341183 20.494279 17.710000
C 19.559461 19.559461 17.710000
C 20.494279 18.341183 17.710000
C 21.081930 16.922469 17.710000
C 21.282367 15.400000 17.710000
C 21.081930 13.877531 17.710000
C 20.494279 12.458817 17.710000
C 19.559461 11.240539 17.710000
C 18.341183 10.305721 17.710000
C 16.922469 9.718070 17.710000
C 15.400000 9.517633 17.710000
C 13.877531 9.718070 17.710000
C 12.458817 10.305721 17.710000
C 11.240539 11.240539 17.710000
C 10.305721 12.458817 17.710000
C 9.718070 13.877531 17.710000
C 9.517633 15.400000 17.710000
C 9.718070 16.922469 17.710000
C 10.305721 18.341183 17.710000
C 11.240539 19.559461 17.710000
C 12.458817 20.494279 17.710000
C 13.877531 21.081930 17.710000
C 15.400000 22.822367 17.710000
C 17.321050 22.569456 17.710000
C 19.111183 21.827958 17.710000
C 20.648406 20.648406 17.710000
C 21.827958 19.111183 17.710000
C 22.569456 17.321050 17.710000
C 22.822367 15.400000 17.710000
C 22.569456 13.478950 17.710000
C 21.827958 11.688817 17.710000
C 20.648406 10.151594 17.710000
C 19.111183 8.972042 17.710000
C 17.321050 8.230544 17.710000
C 15.400000 7.977633 17.710000
C 13.478950 8.230544 17.710000
C 11.688817 8.972042 17.710000
C 10.151594 10.151594 17.710000
C 8.972042 11.688817 17.710000
C 8.230544 13.478950 17.710000
C 7.977633 15.400000 17.710000
C 8.230544 17.321050 17.710000
C 8.972042 19.111183 17.710000
C 10.151594 20.648406 17.710000
C 11.688817 21.827958 17.710000
C 13.478950 22.569456 17.710000
C 15.400000 21.282367 19.250000
C 16.922469 21.081930 19.250000
C 18.341183 20.494279 19.250000
C 19.559461 19.559461 19.250000
C 20.494279 18.341183 19.250000
C 21.081930 16.922469 19.250000
C 21.282367 15.400000 19.250000
C 21.081930 13.877531 19.250000
C 20.494279 12.458817 19.250000
C 19.559461 11.240539 19.250000
C 18.341183 10.305721 19.250000
C 16.922469 9.718070 19.250000
C 15.400000 9.517633 19.250000
C 13.877531 9.718070 19.250000
C 12.458817 10.305721 19.250000
C 11.240539 11.240539 19.250000
C 10.305721 12.458817 19.250000
C 9.718070 13.877531 19.250000
C 9.517633 15.400000 19.250000
C 9.718070 16.922469 19.250000
C 10.305721 18.341183 19.250000
C 11.240539 19.559461 19.250000
C 12.458817 20.494279 19.250000
C 13.877531 21.081930 19.250000
C 15.400000 22.822367 19.250000
C 17.321050 22.569456 19.250000
C 19.111183 21.827958 19.250000
C 20.648406 20.648406 19.250000
C 21.827958 19.111183 19.250000
C 22.569456 17.321050 19.250000
C 22.822367 15.400000 19.250000
C 22.569456 13.478950 19.250000
C 21.827958 11.688817 19.250000
C 20.648406 10.151594 19.250000
C 19.111183 8.972042 19.250000
C 17.321050 8.230544 19.250000
C 15.400000 7.977633 19.250000
C 13.478950 8.230544 19.250000
C 11.688817 8.972042 19.250000
C 10.151594 10.151594 19.250000
C 8.972042 11.688817 19.250000
C 8.230544 13.478950 19.250000
C 7.977633 15.400000 19.250000
C 8.230544 17.321050 19.250000
C 8.972042 19.111183 19.250000
C 10.151594 20.648406 19.250000
C 11.688817 21.827958 19.250000
C 13.478950 22.569456 19.250000
C 15.400000 21.282367 20.790000
C 16.922469 21.081930 20.790000
C 18.341183 20.494279 20.790000
C 19.559461 19.559461 20.790000
C 20.494279 18.341183 20.790000
C 21.081930 16.922469 20.790000
C 21.282367 15.400000 20.790000
C 21.081930 13.877531 20.790000
C 20.494279 12.458817 20.790000
C 19.559461 11.240539 20.790000
C 18.341183 10.305721 20.790000
C 16.922469 9.718070 20.790000
C 15.400000 9.517633 20.790000
C 13.877531 9.718070 20.790000
C 12.458817 10.305721 20.790000
C 11.240539 11.240539 20.790000
C 10.305721 12.458817 20.790000
C 9.718070 13.877531 20.790000
C 9.517633 15.400000 20.790000
C 9.718070 16.922469 20.790000
C 10.305721 18.341183 20.790000
C 11.240539 19.559461 20.790000
C 12.458817 20.494279 20.790000
C 13.877531 21.081930 20.790000
C 15.400000 22.822367 20.790000
C 17.321050 22.569456 20.790000
C 19.111183 21.827958 20.790000
C 20.648406 20.648406 20.790000
C 21.827958 19.111183 20.790000
C 22.569456 17.321050 20.790000
C 22.822367 15.400000 20.790000
C 22.569456 13.478950 20.790000
C 21.827958 11.688817 20.790000
C 20.648406 10.151594 20.790000
C 19.111183 8.972042 20.790000
C 17.321050 8.230544 20.790000
C 15.400000 7.977633 20.790000
C 13.478950 8.230544 20.790000
C 11.688817 8.972042 20.790000
C 10.151594 10.151594 20.790000
C 8.972042 11.688817 20.790000
C 8.230544 13.478950 20.790000
C 7.977633 15.400000 20.790000
C 8.230544 17.321050 20.790000
C 8.972042 19.111183 20.790000
C 10.151594 20.648406 20.790000
C 11.688817 21.827958 20.790000
C 13.478950 22.569456 20.790000
C 15.400000 21.282367 22.330000
C 16.922469 21.081930 22.330000
C 18.341183 20.494279 22.330000
C 19.559461 19.559461 22.330000
C 20.494279 18.341183 22.330000
C 21.081930 16.922469 22.330000
C 21.282367 15.400000 22.330000
C 21.081930 13.877531 22.330000
C 20.494279 12.458817 22.330000
C 19.559461 11.240539 22.330000
C 18.341183 10.305721 22.330000
C 16.922469 9.718070 22.330000
C 15.400000 9.517633 22.330000
C 13.877531 9.718070 22.330000
C 12.458817 10.305721 22.330000
C 11.240539 11.240539 22.330000
C 10.305721 12.458817 22.330000
C 9.718070 13.877531 22.330000
C 9.517633 15.400000 22.330000
C 9.718070 16.922469 22.330000
C 10.305721 18.341183 22.330000
C 11.240539 19.559461 22.330000
C 12.458817 20.494279 22.330000
C 13.877531 21.081930 22.330000
C 15.400000 22.822367 22.330000
C 17.321050 22.569456 22.330000
C 19.111183 21.827958 22.330000
C 20.648406 20.648406 22.330000
C 21.827958 19.111183 22.330000
C 22.569456 17.321050 22.330000
C 22.822367 15.400000 22.330000
C 22.569456 13.478950 22.330000
C 21.827958 11.688817 22.330000
C 20.648406 10.151594 22.330000
C 19.111183 8.972042 22.330000
C 17.321050 8.230544 22.330000
C 15.400000 7.977633 22.330000
C 13.478950 8.230544 22.330000
C 11.688817 8.972042 22.330000
C 10.151594 10.151594 22.330000
C 8.972042 11.688817 22.330000
C 8.230544 13.478950 22.330000
C 7.977633 15.400000 22.330000
C 8.230544 17.321050 22.330000
C 8.972042 19.111183 22.330000
C 10.151594 20.648406 22.330000
C 11.688817 21.827958 22.330000
C 13.478950 22.569456 22.330000
C 15.400000 21.282367 23.870000
C 16.922469 21.081930 23.870000
C 18.341183 20.494279 23.870000
C 19.559461 19.559461 23.870000
C 20.494279 18.341183 23.870000
C 21.081930 16.922469 23.870000
C 21.282367 15.400000 23.870000
C 21.081930 13.877531 23.870000
C 20.494279 12.458817 23.870000
C 19.559461 11.240539 23.870000
C 18.341183 10.305721 23.870000
C 16.922469 9.718070 23.870000
C 15.400000 9.517633 23.870000
C 13.877531 9.718070 23.870000
C 12.458817 10.305721 23.870000
C 11.240539 11.240539 23.870000
C 10.305721 12.458817 23.870000
C 9.718070 13.877531 23.870000
C 9.517633 15.400000 23.870000
C 9.718070 16.922469 23.870000
C 10.305721 18.341183 23.870000
C 11.240539 19.559461 23.870000
C 12.458817 20.494279 23.870000
C 13.877531 21.081930 23.870000
C 15.400000 22.822367 23.870000
C 17.321050 22.569456 23.870000
C 19.111183 21.827958 23.870000
C 20.648406 20.648406 23.870000
C 21.827958 19.111183 23.870000
C 22.569456 17.321050 23.870000
C 22.822367 15.400000 23.870000
C 22.569456 13.478950 23.870000
C 21.827958 11.688817 23.870000
C 20.648406 10.151594 23.870000
C 19.111183 8.972042 23.870000
C 17.321050 8.230544 23.870000
C 15.400000 7.977633 23.870000
C 13.478950 8.230544 23.870000
C 11.688817 8.972042 23.870000
C 10.151594 10.151594 23.870000
C 8.972042 11.688817 23.870000
C 8.230544 13.478950 23.870000
C 7.977633 15.400000 23.870000
C 8.230544 17.321050 23.870000
C 8.972042 19.111183 23.870000
C 10.151594 20.648406 23.870000
C 11.688817 21.827958 23.870000
C 13.478950 22.569456 23.870000
C 15.400000 21.282367 25.410000
C 16.922469 21.081930 25.410000
C 18.341183 20.494279 25.410000
C 19.559461 19.559461 25.410000
C 20.494279 18.341183 25.410000
C 21.081930 16.922469 25.410000
C 21.282367 15.400000 25.410000
C 21.081930 13.877531 25.410000
C 20.494279 12.458817 25.410000
C 19.559461 11.240539 25.410000
C 18.341183 10.305721 25.410000
C 16.922469 9.718070 25.410000
C 15.400000 9.517633 25.410000
C 13.877531 9.718070 25.410000
C 12.458817 10.305721 25.410000
C 11.240539 11.240539 25.410000
C 10.305721 12.458817 25.410000
C 9.718070 13.877531 25.410000
C 9.517633 15.400000 25.410000
C 9.718070 16.922469 25.410000
C 10.305721 18.341183 25.410000
C 11.240539 19.559461 25.410000
C 12.458817 20.494279 25.410000
C 13.877531 21.081930 25.410000
C 15.400000 22.822367 25.410000
C 17.321050 22.569456 25.410000
C 19.111183 21.827958 25.410000
C 20.648406 20.648406 25.410000
C 21.827958 19.111183 25.410000
C 22.569456 17.321050 25.410000
C 22.822367 15.400000 25.410000
C 22.569456 13.478950 25.410000
C 21.827958 11.688817 25.410000
C 20.648406 10.151594 25.410000
C 19.111183 8.972042 25.410000
C 17.321050 8.230544 25.410000
C 15.400000 7.977633 25.410000
C 13.478950 8.230544 25.410000
C 11.688817 8.972042 25.410000
C 10.151594 10.151594 25.410000
C 8.972042 11.688817 25.410000
C 8.230544 13.478950 25.410000
C 7.977633 15.400000 25.410000
C 8.230544 17.321050 25.410000
C 8.972042 19.111183 25.410000
C 10.151594 20.648406 25.410000
C 11.688817 21.827958 25.410000
C 13.478950 22.569456 25.410000
C 15.400000 21.282367 26.950000
C 16.922469 21.081930 26.950000
C 18.341183 20.494279 26.950000
C 19.559461 19.559461 26.950000
C 20.494279 18.341183 26.950000
C 21.081930 16.922469 26.950000
C 21.282367 15.400000 26.950000
C 21.081930 13.877531 26.950000
C 20.494279 12.458817 26.950000
C 19.559461 11.240539 26.950000
C 18.341183 10.305721 26.950000
C 16.922469 9.718070 26.950000
C 15.400000 9.517633 26.950000
C 13.877531 9.718070 26.950000
C 12.458817 10.305721 26.950000
C 11.240539 11.240539 26.950000
C 10.305721 12.458817 26.950000
C 9.718070 13.877531 26.950000
C 9.517633 15.400000 26.950000
C 9.718070 16.922469 26.950000
C 10.305721 18.341183 26.950000
C 11.240539 19.559461 26.950000
C 12.458817 20.494279 26.950000
C 13.877531 21.081930 26.950000
C 15.400000 22.822367 26.950000
C 17.321050 22.569456 26.950000
C 19.111183 21.827958 26.950000
C 20.648406 20.648406 26.950000
C 21.827958 19.111183 26.950000
C 22.569456 17.321050 26.950000
C 22.822367 15.400000 26.950000
C 22.569456 13.478950 26.950000
C 21.827958 11.688817 26.950000
C 20.648406 10.151594 26.950000
C 19.111183 8.972042 26.950000
C 17.321050 8.230544 26.950000
C 15.400000 7.977633 26.950000
C 13.478950 8.230544 26.950000
C 11.688817 8.972042 26.950000
C 10.151594 10.151594 26.950000
C 8.972042 11.688817 26.950000
C 8.230544 13.478950 26.950000
C 7.977633 15.400000 26.950000
C 8.230544 17.321050 26.950000
C 8.972042 19.111183 26.950000
C 10.151594 20.648406 26.950000
C 11.688817 21.827958 26.950000
C 13.478950 22.569456 26.950000
C 15.400000 21.282367 28.490000
C 16.922469 21.081930 28.490000
C 18.341183 20.494279 28.490000
C 19.559461 19.559461 28.490000
C 20.494279 18.341183 28.490000
C 21.081930 16.922469 28.490000
C 21.282367 15.400000 28.490000
C 21.081930 13.877531 28.490000
C 20.494279 12.458817 28.490000
C 19.559461 11.240539 28.490000
C 18.341183 10.305721 28.490000
C 16.922469 9.718070 28.490000
C 15.400000 9.517633 28.490000
C 13.877531 9.718070 28.490000
C 12.458817 10.305721 28.490000
C 11.240539 11.240539 28.490000
C 10.305721 12.458817 28.490000
C 9.718070 13.877531 28.490000
C 9.517633 15.400000 28.490000
C 9.718070 16.922469 28.490000
C 10.305721 18.341183 28.490000
C 11.240539 19.559461 28.490000
C 12.458817 20.494279 28.490000
C 13.877531 21.081930 28.490000
C 15.400000 22.822367 28.490000
C 17.321050 22.569456 28.490000
C 19.111183 21.827958 28.490000
C 20.648406 20.648406 28.490000
C 21.827958 19.111183 28.490000
C 22.569456 17.321050 28.490000
C 22.822367 15.400000 28.490000
C 22.569456 13.478950 28.490000
C 21.827958 11.688817 28.490000
C 20.648406 10.151594 28.490000
C 19.111183 8.972042 28.490000
C 17.321050 8.230544 28.490000
C 15.400000 7.977633 28.490000
C 13.478950 8.230544 28.490000
C 11.688817 8.972042 28.490000
C 10.151594 10.151594 28.490000
C 8.972042 11.688817 28.490000
C 8.230544 13.478950 28.490000
C 7.977633 15.400000 28.490000
C 8.230544 17.321050 28.490000
C 8.972042 19.111183 28.490000
C 10.151594 20.648406 28.490000
C 11.688817 21.827958 28.490000
C 13.478950 22.569456 28.490000
C 15.400000 21.282367 30.030000
C 16.922469 21.081930 30.030000
C 18.341183 20.494279 30.030000
C 19.559461 19.559461 30.030000
C 20.494279 18.341183 30.030000
C 21.081930 16.922469 30.030000
C 21.282367 15.400000 30.030000
C 21.081930 13.877531 30.030000
C 20.494279 12.458817 30.030000
C 19.559461 11.240539 30.030000
C 18.341183 10.305721 30.030000
C 16.922469 9.718070 30.030000
C 15.400000 9.517633 30.030000
C 13.877531 9.718070 30.030000
C 12.458817 10.305721 30.030000
C 11.240539 11.240539 30.030000
C 10.305721 12.458817 30.030000
C 9.718070 13.877531 30.030000
C 9.517633 15.400000 30.030000
C 9.718070 16.922469 30.030000
C 10.305721 18.341183 30.030000
C 11.240539 19.559461 30.030000
C 12.458817 20.494279 30.030000
C 13.877531 21.081930 30.030000
C 15.400000 22.822367 30.030000
C 17.321050 22.569456 30.030000
C 19.111183 21.827958 30.030000
C 20.648406 20.648406 30.030000
C 21.827958 19.111183 30.030000
C 22.569456 17.321050 30.030000
C 22.822367 15.400000 30.030000
C 22.569456 13.478950 30.030000
C 21.827958 11.688817 30.030000
C 20.648406 10.151594 30.030000
C 19.111183 8.972042 30.030000
C 17.321050 8.230544 30.030000
C 15.400000 7.977633 30.030000
C 13.478950 8.230544 30.030000
C 11.688817 8.972042 30.030000
C 10.151594 10.151594 30.030000
C 8.972042 11.688817 30.030000
C 8.230544 13.478950 30.030000
C 7.977633 15.400000 30.030000
C 8.230544 17.321050 30.030000
C 8.972042 19.111183 30.030000
C 10.151594 20.648406 30.030000
C 11.688817 21.827958 30.030000
C 13.478950 22.569456 30.030000
